<?xml version="1.0" encoding="UTF-8"?>

<!-- generated on Mon Dec 18 10:05:26 2017 by SUMO duarouter Version 0.30.0
<?xml version="1.0" encoding="UTF-8"?>

<configuration xmlns:xsi="http://www.w3.org/2001/XMLSchema-instance" xsi:noNamespaceSchemaLocation="http://sumo.dlr.de/xsd/duarouterConfiguration.xsd">

    <input>
        <net-file value="networkFiles/3x3Grid2lanes.net.xml"/>
        <trip-files value="tripse14000.trips.xml"/>
    </input>

    <output>
        <output-file value="routese14000.rou.xml"/>
    </output>

</configuration>
-->

<routes xmlns:xsi="http://www.w3.org/2001/XMLSchema-instance" xsi:noNamespaceSchemaLocation="http://sumo.dlr.de/xsd/routes_file.xsd">

    <vehicle id="0" reroute="true"  depart="0.00">
        <route edges="2Ni 1Ei 0Ei 0Wo"/>
    </vehicle>
    <vehicle id="1" reroute="true"  depart="2.00">
        <route edges="8Ei 5Si 2Si 1Ei 0Ei 0No"/>
    </vehicle>
    <vehicle id="2" reroute="true"  depart="4.00">
        <route edges="8Ei 5Si 2Si 1Ei 1No"/>
    </vehicle>
    <vehicle id="3" reroute="true"  depart="6.00">
        <route edges="6Si 3Si 0Si"/>
    </vehicle>
    <vehicle id="4" reroute="true"  depart="8.00">
        <route edges="8Ei 5Si 2Si 1Ei 0Ei 0Wo"/>
    </vehicle>
    <vehicle id="5" reroute="true"  depart="10.00">
        <route edges="0Ni 1Wi 2Wi 5Ni 8Ni 8Eo"/>
    </vehicle>
    <vehicle id="6" reroute="true"  depart="12.00">
        <route edges="8Ei 7Ei 6Ei 6Wo"/>
    </vehicle>
    <vehicle id="7" reroute="true"  depart="14.00">
        <route edges="2Ni 5Ni 8Ni 7Ei"/>
    </vehicle>
    <vehicle id="8" reroute="true"  depart="16.00">
        <route edges="2Ei 5Ni 8Ni 7Ei 6Ei 3Si"/>
    </vehicle>
    <vehicle id="9" reroute="true"  depart="18.00">
        <route edges="6Wi 7Wi 8Wi 5Si"/>
    </vehicle>
    <vehicle id="10" reroute="true"  depart="20.00">
        <route edges="6Si 7Wi 8Wi 8Eo"/>
    </vehicle>
    <vehicle id="11" reroute="true"  depart="22.00">
        <route edges="7Si 4Si 1Si"/>
    </vehicle>
    <vehicle id="12" reroute="true"  depart="24.00">
        <route edges="6Si 7Wi 4Si 1Si"/>
    </vehicle>
    <vehicle id="13" reroute="true"  depart="26.00">
        <route edges="5Ei 4Ei 3Ei"/>
    </vehicle>
    <vehicle id="14" reroute="true"  depart="28.00">
        <route edges="6Si 7Wi 4Si 1Si 0Ei"/>
    </vehicle>
    <vehicle id="15" reroute="true"  depart="30.00">
        <route edges="5Ei 8Ni 7Ei 6Ei 6So"/>
    </vehicle>
    <vehicle id="16" reroute="true"  depart="32.00">
        <route edges="6Si 7Wi 8Wi 5Si 2Si 2Eo"/>
    </vehicle>
    <vehicle id="17" reroute="true"  depart="34.00">
        <route edges="7Si 4Si 1Si 0Ei 0No"/>
    </vehicle>
    <vehicle id="18" reroute="true"  depart="36.00">
        <route edges="2Ei 5Ni 4Ei 3Ei"/>
    </vehicle>
    <vehicle id="19" reroute="true"  depart="38.00">
        <route edges="2Ei 5Ni 4Ei 3Ei 3Wo"/>
    </vehicle>
    <vehicle id="20" reroute="true"  depart="40.00">
        <route edges="0Ni 1Wi 4Ni 7Ni 6Ei"/>
    </vehicle>
    <vehicle id="21" reroute="true"  depart="42.00">
        <route edges="2Ni 5Ni 4Ei 7Ni 8Wi"/>
    </vehicle>
    <vehicle id="22" reroute="true"  depart="44.00">
        <route edges="8Ei 5Si 4Ei 3Ei 0Si"/>
    </vehicle>
    <vehicle id="23" reroute="true"  depart="46.00">
        <route edges="0Wi 1Wi 4Ni 5Wi"/>
    </vehicle>
    <vehicle id="24" reroute="true"  depart="48.00">
        <route edges="8Ei 7Ei 6Ei 6Wo"/>
    </vehicle>
    <vehicle id="25" reroute="true"  depart="50.00">
        <route edges="2Ni 5Ni 4Ei 3Ei 6Ni 7Wi"/>
    </vehicle>
    <vehicle id="26" reroute="true"  depart="52.00">
        <route edges="6Wi 7Wi 8Wi"/>
    </vehicle>
    <vehicle id="27" reroute="true"  depart="54.00">
        <route edges="6Wi 7Wi 8Wi 5Si 2Si"/>
    </vehicle>
    <vehicle id="28" reroute="true"  depart="56.00">
        <route edges="7Si 4Si 1Si 0Ei 0No"/>
    </vehicle>
    <vehicle id="29" reroute="true"  depart="58.00">
        <route edges="2Ni 5Ni 8Ni 8Eo"/>
    </vehicle>
    <vehicle id="30" reroute="true"  depart="60.00">
        <route edges="2Ei 5Ni 8Ni 7Ei 6Ei 3Si"/>
    </vehicle>
    <vehicle id="31" reroute="true"  depart="62.00">
        <route edges="8Si 5Si 4Ei 3Ei 0Si"/>
    </vehicle>
    <vehicle id="32" reroute="true"  depart="64.00">
        <route edges="1Ni 2Wi 5Ni 5Eo"/>
    </vehicle>
    <vehicle id="33" reroute="true"  depart="66.00">
        <route edges="0Wi 1Wi 2Wi"/>
    </vehicle>
    <vehicle id="34" reroute="true"  depart="68.00">
        <route edges="7Si 8Wi 5Si 2Si 2No"/>
    </vehicle>
    <vehicle id="35" reroute="true"  depart="70.00">
        <route edges="7Si 8Wi 5Si 5Eo"/>
    </vehicle>
    <vehicle id="36" reroute="true"  depart="72.00">
        <route edges="0Wi 1Wi 4Ni 7Ni 8Wi 5Si"/>
    </vehicle>
    <vehicle id="37" reroute="true"  depart="74.00">
        <route edges="0Ni 3Ni 6Ni 7Wi"/>
    </vehicle>
    <vehicle id="38" reroute="true"  depart="76.00">
        <route edges="2Ni 5Ni 8Ni 7Ei 6Ei"/>
    </vehicle>
    <vehicle id="39" reroute="true"  depart="78.00">
        <route edges="1Ni 4Ni 7Ni 8Wi"/>
    </vehicle>
    <vehicle id="40" reroute="true"  depart="80.00">
        <route edges="1Ni 2Wi 5Ni 5Eo"/>
    </vehicle>
    <vehicle id="41" reroute="true"  depart="82.00">
        <route edges="2Ni 5Ni 8Ni"/>
    </vehicle>
    <vehicle id="42" reroute="true"  depart="84.00">
        <route edges="0Wi 1Wi 2Wi 2No"/>
    </vehicle>
    <vehicle id="43" reroute="true"  depart="86.00">
        <route edges="7Si 4Si 1Si 2Wi"/>
    </vehicle>
    <vehicle id="44" reroute="true"  depart="88.00">
        <route edges="8Si 5Si 2Si 1Ei 0Ei 0No"/>
    </vehicle>
    <vehicle id="45" reroute="true"  depart="90.00">
        <route edges="2Ni 1Ei 0Ei 0Wo"/>
    </vehicle>
    <vehicle id="46" reroute="true"  depart="92.00">
        <route edges="2Ei 5Ni 4Ei 3Ei 3Wo"/>
    </vehicle>
    <vehicle id="47" reroute="true"  depart="94.00">
        <route edges="8Ei 5Si 2Si 2No"/>
    </vehicle>
    <vehicle id="48" reroute="true"  depart="96.00">
        <route edges="8Si 5Si 4Ei 1Si"/>
    </vehicle>
    <vehicle id="49" reroute="true"  depart="98.00">
        <route edges="0Ni 1Wi 4Ni 7Ni 8Wi"/>
    </vehicle>
    <vehicle id="50" reroute="true"  depart="100.00">
        <route edges="7Si 8Wi 5Si 2Si"/>
    </vehicle>
    <vehicle id="51" reroute="true"  depart="102.00">
        <route edges="2Ei 1Ei 0Ei 3Ni"/>
    </vehicle>
    <vehicle id="52" reroute="true"  depart="104.00">
        <route edges="2Ni 5Ni 4Ei 3Ei 3Wo"/>
    </vehicle>
    <vehicle id="53" reroute="true"  depart="106.00">
        <route edges="5Ei 8Ni 7Ei 6Ei 6Wo"/>
    </vehicle>
    <vehicle id="54" reroute="true"  depart="108.00">
        <route edges="3Wi 4Wi 5Wi 2Si"/>
    </vehicle>
    <vehicle id="55" reroute="true"  depart="110.00">
        <route edges="1Ni 2Wi 5Ni 8Ni"/>
    </vehicle>
    <vehicle id="56" reroute="true"  depart="112.00">
        <route edges="0Ni 1Wi 2Wi 5Ni 8Ni"/>
    </vehicle>
    <vehicle id="57" reroute="true"  depart="114.00">
        <route edges="2Ni 5Ni 8Ni 7Ei"/>
    </vehicle>
    <vehicle id="58" reroute="true"  depart="116.00">
        <route edges="0Wi 1Wi 2Wi 5Ni 5Eo"/>
    </vehicle>
    <vehicle id="59" reroute="true"  depart="118.00">
        <route edges="7Si 4Si 3Ei 3Wo"/>
    </vehicle>
    <vehicle id="60" reroute="true"  depart="120.00">
        <route edges="8Ei 5Si 4Ei 3Ei 0Si"/>
    </vehicle>
    <vehicle id="61" reroute="true"  depart="122.00">
        <route edges="8Si 5Si 2Si 1Ei 0Ei"/>
    </vehicle>
    <vehicle id="62" reroute="true"  depart="124.00">
        <route edges="0Ni 1Wi 2Wi 5Ni 8Ni"/>
    </vehicle>
    <vehicle id="63" reroute="true"  depart="126.00">
        <route edges="3Wi 4Wi 5Wi 2Si"/>
    </vehicle>
    <vehicle id="64" reroute="true"  depart="128.00">
        <route edges="5Ei 8Ni 7Ei 6Ei 3Si"/>
    </vehicle>
    <vehicle id="65" reroute="true"  depart="130.00">
        <route edges="6Wi 7Wi 8Wi 8Eo"/>
    </vehicle>
    <vehicle id="66" reroute="true"  depart="132.00">
        <route edges="8Si 5Si 2Si 1Ei 0Ei 0Wo"/>
    </vehicle>
    <vehicle id="67" reroute="true"  depart="134.00">
        <route edges="6Si 7Wi 4Si 1Si 2Wi"/>
    </vehicle>
    <vehicle id="68" reroute="true"  depart="136.00">
        <route edges="0Ni 1Wi 4Ni 7Ni 6Ei"/>
    </vehicle>
    <vehicle id="69" reroute="true"  depart="138.00">
        <route edges="8Si 5Si 4Ei 1Si"/>
    </vehicle>
    <vehicle id="70" reroute="true"  depart="140.00">
        <route edges="8Ei 5Si 2Si 1Ei 0Ei"/>
    </vehicle>
    <vehicle id="71" reroute="true"  depart="142.00">
        <route edges="7Si 4Si 1Si 0Ei 0Wo"/>
    </vehicle>
    <vehicle id="72" reroute="true"  depart="144.00">
        <route edges="3Wi 4Wi 5Wi 8Ni"/>
    </vehicle>
    <vehicle id="73" reroute="true"  depart="146.00">
        <route edges="6Si 3Si 0Si"/>
    </vehicle>
    <vehicle id="74" reroute="true"  depart="148.00">
        <route edges="2Ni 5Ni 8Ni 8So"/>
    </vehicle>
    <vehicle id="75" reroute="true"  depart="150.00">
        <route edges="1Ni 4Ni 3Ei 3Wo"/>
    </vehicle>
    <vehicle id="76" reroute="true"  depart="152.00">
        <route edges="2Ni 5Ni 8Ni 7Ei"/>
    </vehicle>
    <vehicle id="77" reroute="true"  depart="154.00">
        <route edges="7Si 4Si 3Ei 0Si"/>
    </vehicle>
    <vehicle id="78" reroute="true"  depart="156.00">
        <route edges="0Ni 1Wi 2Wi 5Ni 8Ni"/>
    </vehicle>
    <vehicle id="79" reroute="true"  depart="158.00">
        <route edges="2Ei 5Ni 4Ei 3Ei 3Wo"/>
    </vehicle>
    <vehicle id="80" reroute="true"  depart="160.00">
        <route edges="2Ni 5Ni 8Ni 7Ei 6Ei"/>
    </vehicle>
    <vehicle id="81" reroute="true"  depart="162.00">
        <route edges="0Ni 3Ni 6Ni"/>
    </vehicle>
    <vehicle id="82" reroute="true"  depart="164.00">
        <route edges="0Wi 1Wi 2Wi 5Ni"/>
    </vehicle>
    <vehicle id="83" reroute="true"  depart="166.00">
        <route edges="6Si 3Si 0Si"/>
    </vehicle>
    <vehicle id="84" reroute="true"  depart="168.00">
        <route edges="7Si 8Wi 5Si 2Si"/>
    </vehicle>
    <vehicle id="85" reroute="true"  depart="170.00">
        <route edges="8Ei 7Ei 6Ei"/>
    </vehicle>
    <vehicle id="86" reroute="true"  depart="172.00">
        <route edges="0Wi 1Wi 4Ni 7Ni 8Wi"/>
    </vehicle>
    <vehicle id="87" reroute="true"  depart="174.00">
        <route edges="6Si 7Wi 8Wi 5Si 2Si 2No"/>
    </vehicle>
    <vehicle id="88" reroute="true"  depart="176.00">
        <route edges="8Ei 5Si 4Ei 3Ei 0Si"/>
    </vehicle>
    <vehicle id="89" reroute="true"  depart="178.00">
        <route edges="2Ni 5Ni 8Ni 7Ei 6Ei"/>
    </vehicle>
    <vehicle id="90" reroute="true"  depart="180.00">
        <route edges="7Si 8Wi 5Si 2Si 1Ei"/>
    </vehicle>
    <vehicle id="91" reroute="true"  depart="182.00">
        <route edges="0Wi 1Wi 4Ni 7Ni 7So"/>
    </vehicle>
    <vehicle id="92" reroute="true"  depart="184.00">
        <route edges="1Ni 4Ni 3Ei 6Ni 7Wi"/>
    </vehicle>
    <vehicle id="93" reroute="true"  depart="186.00">
        <route edges="7Si 4Si 3Ei 0Si"/>
    </vehicle>
    <vehicle id="94" reroute="true"  depart="188.00">
        <route edges="0Ni 1Wi 2Wi 5Ni 8Ni 7Ei"/>
    </vehicle>
    <vehicle id="95" reroute="true"  depart="190.00">
        <route edges="0Wi 1Wi 4Ni 5Wi 2Si"/>
    </vehicle>
    <vehicle id="96" reroute="true"  depart="192.00">
        <route edges="8Si 5Si 4Ei 3Ei 3Wo"/>
    </vehicle>
    <vehicle id="97" reroute="true"  depart="194.00">
        <route edges="0Wi 1Wi 4Ni 5Wi"/>
    </vehicle>
    <vehicle id="98" reroute="true"  depart="196.00">
        <route edges="0Ni 1Wi 2Wi 5Ni 5Eo"/>
    </vehicle>
    <vehicle id="99" reroute="true"  depart="198.00">
        <route edges="1Ni 2Wi 5Ni 5Eo"/>
    </vehicle>
    <vehicle id="100" reroute="true"  depart="200.00">
        <route edges="7Si 4Si 3Ei 3Wo"/>
    </vehicle>
    <vehicle id="101" reroute="true"  depart="202.00">
        <route edges="5Ei 2Si 1Ei 0Ei 3Ni"/>
    </vehicle>
    <vehicle id="102" reroute="true"  depart="204.00">
        <route edges="0Ni 1Wi 4Ni 7Ni 6Ei"/>
    </vehicle>
    <vehicle id="103" reroute="true"  depart="206.00">
        <route edges="0Wi 1Wi 4Ni 5Wi"/>
    </vehicle>
    <vehicle id="104" reroute="true"  depart="208.00">
        <route edges="6Si 3Si 0Si 0Wo"/>
    </vehicle>
    <vehicle id="105" reroute="true"  depart="210.00">
        <route edges="7Si 8Wi 5Si 2Si 1Ei"/>
    </vehicle>
    <vehicle id="106" reroute="true"  depart="212.00">
        <route edges="6Wi 7Wi 4Si 1Si 2Wi 5Ni"/>
    </vehicle>
    <vehicle id="107" reroute="true"  depart="214.00">
        <route edges="2Ni 5Ni 4Ei 3Ei 3Wo"/>
    </vehicle>
    <vehicle id="108" reroute="true"  depart="216.00">
        <route edges="2Ei 5Ni 8Ni 7Ei 6Ei 3Si"/>
    </vehicle>
    <vehicle id="109" reroute="true"  depart="218.00">
        <route edges="3Wi 4Wi 5Wi"/>
    </vehicle>
    <vehicle id="110" reroute="true"  depart="220.00">
        <route edges="6Si 7Wi 8Wi 5Si 2Si"/>
    </vehicle>
    <vehicle id="111" reroute="true"  depart="222.00">
        <route edges="0Wi 1Wi 4Ni 5Wi"/>
    </vehicle>
    <vehicle id="112" reroute="true"  depart="224.00">
        <route edges="0Ni 1Wi 2Wi 5Ni 5Eo"/>
    </vehicle>
    <vehicle id="113" reroute="true"  depart="226.00">
        <route edges="5Ei 4Ei 3Ei"/>
    </vehicle>
    <vehicle id="114" reroute="true"  depart="228.00">
        <route edges="2Ni 5Ni 8Ni 8Eo"/>
    </vehicle>
    <vehicle id="115" reroute="true"  depart="230.00">
        <route edges="1Ni 4Ni 7Ni 6Ei 6So"/>
    </vehicle>
    <vehicle id="116" reroute="true"  depart="232.00">
        <route edges="8Ei 7Ei 6Ei"/>
    </vehicle>
    <vehicle id="117" reroute="true"  depart="234.00">
        <route edges="6Wi 7Wi 4Si 1Si 1No"/>
    </vehicle>
    <vehicle id="118" reroute="true"  depart="236.00">
        <route edges="8Si 5Si 2Si 1Ei 1No"/>
    </vehicle>
    <vehicle id="119" reroute="true"  depart="238.00">
        <route edges="7Si 4Si 1Si"/>
    </vehicle>
    <vehicle id="120" reroute="true"  depart="240.00">
        <route edges="1Ni 2Wi 5Ni 5Eo"/>
    </vehicle>
    <vehicle id="121" reroute="true"  depart="242.00">
        <route edges="1Ni 2Wi 5Ni 8Ni 8So"/>
    </vehicle>
    <vehicle id="122" reroute="true"  depart="244.00">
        <route edges="1Ni 4Ni 7Ni 8Wi"/>
    </vehicle>
    <vehicle id="123" reroute="true"  depart="246.00">
        <route edges="5Ei 2Si 1Ei 0Ei"/>
    </vehicle>
    <vehicle id="124" reroute="true"  depart="248.00">
        <route edges="6Wi 7Wi 8Wi 5Si"/>
    </vehicle>
    <vehicle id="125" reroute="true"  depart="250.00">
        <route edges="1Ni 4Ni 3Ei 3Wo"/>
    </vehicle>
    <vehicle id="126" reroute="true"  depart="252.00">
        <route edges="8Ei 5Si 4Ei 3Ei 6Ni"/>
    </vehicle>
    <vehicle id="127" reroute="true"  depart="254.00">
        <route edges="8Si 5Si 4Ei 3Ei 3Wo"/>
    </vehicle>
    <vehicle id="128" reroute="true"  depart="256.00">
        <route edges="5Ei 8Ni 7Ei 6Ei"/>
    </vehicle>
    <vehicle id="129" reroute="true"  depart="258.00">
        <route edges="5Ei 8Ni 7Ei 6Ei 6So"/>
    </vehicle>
    <vehicle id="130" reroute="true"  depart="260.00">
        <route edges="6Si 3Si 0Si 0No"/>
    </vehicle>
    <vehicle id="131" reroute="true"  depart="262.00">
        <route edges="3Wi 4Wi 7Ni 7So"/>
    </vehicle>
    <vehicle id="132" reroute="true"  depart="264.00">
        <route edges="0Wi 1Wi 2Wi 5Ni 8Ni 8So"/>
    </vehicle>
    <vehicle id="133" reroute="true"  depart="266.00">
        <route edges="0Ni 1Wi 2Wi 5Ni 5Eo"/>
    </vehicle>
    <vehicle id="134" reroute="true"  depart="268.00">
        <route edges="8Si 5Si 2Si 1Ei 0Ei"/>
    </vehicle>
    <vehicle id="135" reroute="true"  depart="270.00">
        <route edges="2Ei 5Ni 8Ni 7Ei 6Ei 3Si"/>
    </vehicle>
    <vehicle id="136" reroute="true"  depart="272.00">
        <route edges="2Ni 5Ni 8Ni"/>
    </vehicle>
    <vehicle id="137" reroute="true"  depart="274.00">
        <route edges="0Wi 1Wi 2Wi 2No"/>
    </vehicle>
    <vehicle id="138" reroute="true"  depart="276.00">
        <route edges="1Ni 4Ni 3Ei 6Ni 7Wi"/>
    </vehicle>
    <vehicle id="139" reroute="true"  depart="278.00">
        <route edges="3Wi 4Wi 5Wi"/>
    </vehicle>
    <vehicle id="140" reroute="true"  depart="280.00">
        <route edges="2Ni 5Ni 4Ei 7Ni"/>
    </vehicle>
    <vehicle id="141" reroute="true"  depart="282.00">
        <route edges="5Ei 2Si 1Ei 0Ei 0No"/>
    </vehicle>
    <vehicle id="142" reroute="true"  depart="284.00">
        <route edges="6Wi 7Wi 4Si 1Si 1No"/>
    </vehicle>
    <vehicle id="143" reroute="true"  depart="286.00">
        <route edges="2Ei 5Ni 8Ni 7Ei 6Ei 6Wo"/>
    </vehicle>
    <vehicle id="144" reroute="true"  depart="288.00">
        <route edges="3Wi 4Wi 5Wi 8Ni 8Eo"/>
    </vehicle>
    <vehicle id="145" reroute="true"  depart="290.00">
        <route edges="3Wi 4Wi 5Wi 8Ni 8Eo"/>
    </vehicle>
    <vehicle id="146" reroute="true"  depart="292.00">
        <route edges="0Ni 3Ni 6Ni"/>
    </vehicle>
    <vehicle id="147" reroute="true"  depart="294.00">
        <route edges="7Si 4Si 3Ei 3Wo"/>
    </vehicle>
    <vehicle id="148" reroute="true"  depart="296.00">
        <route edges="7Si 4Si 1Si"/>
    </vehicle>
    <vehicle id="149" reroute="true"  depart="298.00">
        <route edges="6Si 7Wi 8Wi 5Si 2Si 1Ei"/>
    </vehicle>
    <vehicle id="150" reroute="true"  depart="300.00">
        <route edges="1Ni 4Ni 3Ei 6Ni"/>
    </vehicle>
    <vehicle id="151" reroute="true"  depart="302.00">
        <route edges="0Wi 1Wi 2Wi 5Ni 8Ni 8So"/>
    </vehicle>
    <vehicle id="152" reroute="true"  depart="304.00">
        <route edges="0Wi 1Wi 2Wi 2No"/>
    </vehicle>
    <vehicle id="153" reroute="true"  depart="306.00">
        <route edges="1Ni 4Ni 7Ni"/>
    </vehicle>
    <vehicle id="154" reroute="true"  depart="308.00">
        <route edges="0Ni 3Ni 6Ni 7Wi"/>
    </vehicle>
    <vehicle id="155" reroute="true"  depart="310.00">
        <route edges="8Si 7Ei 6Ei 6Wo"/>
    </vehicle>
    <vehicle id="156" reroute="true"  depart="312.00">
        <route edges="6Si 7Wi 4Si 1Si 0Ei"/>
    </vehicle>
    <vehicle id="157" reroute="true"  depart="314.00">
        <route edges="0Wi 1Wi 2Wi"/>
    </vehicle>
    <vehicle id="158" reroute="true"  depart="316.00">
        <route edges="6Si 7Wi 4Si 1Si 1No"/>
    </vehicle>
    <vehicle id="159" reroute="true"  depart="318.00">
        <route edges="0Ni 1Wi 2Wi 2Eo"/>
    </vehicle>
    <vehicle id="160" reroute="true"  depart="320.00">
        <route edges="2Ni 1Ei 0Ei 0Wo"/>
    </vehicle>
    <vehicle id="161" reroute="true"  depart="322.00">
        <route edges="8Ei 5Si 4Ei 3Ei 3Wo"/>
    </vehicle>
    <vehicle id="162" reroute="true"  depart="324.00">
        <route edges="0Wi 1Wi 2Wi 5Ni 5Eo"/>
    </vehicle>
    <vehicle id="163" reroute="true"  depart="326.00">
        <route edges="1Ni 4Ni 7Ni 6Ei 6Wo"/>
    </vehicle>
    <vehicle id="164" reroute="true"  depart="328.00">
        <route edges="5Ei 8Ni 7Ei 6Ei 6So"/>
    </vehicle>
    <vehicle id="165" reroute="true"  depart="330.00">
        <route edges="2Ei 5Ni 4Ei 3Ei 3Wo"/>
    </vehicle>
    <vehicle id="166" reroute="true"  depart="332.00">
        <route edges="6Si 7Wi 8Wi 8Eo"/>
    </vehicle>
    <vehicle id="167" reroute="true"  depart="334.00">
        <route edges="0Wi 1Wi 2Wi 2Eo"/>
    </vehicle>
    <vehicle id="168" reroute="true"  depart="336.00">
        <route edges="1Ni 2Wi 5Ni 8Ni 8Eo"/>
    </vehicle>
    <vehicle id="169" reroute="true"  depart="338.00">
        <route edges="0Wi 1Wi 4Ni 5Wi 2Si"/>
    </vehicle>
    <vehicle id="170" reroute="true"  depart="340.00">
        <route edges="6Wi 7Wi 8Wi 5Si"/>
    </vehicle>
    <vehicle id="171" reroute="true"  depart="342.00">
        <route edges="6Wi 7Wi 8Wi 5Si 2Si 2Eo"/>
    </vehicle>
    <vehicle id="172" reroute="true"  depart="344.00">
        <route edges="6Si 7Wi 8Wi 5Si 2Si 2Eo"/>
    </vehicle>
    <vehicle id="173" reroute="true"  depart="346.00">
        <route edges="8Si 5Si 4Ei 3Ei 0Si"/>
    </vehicle>
    <vehicle id="174" reroute="true"  depart="348.00">
        <route edges="2Ei 5Ni 8Ni 8So"/>
    </vehicle>
    <vehicle id="175" reroute="true"  depart="350.00">
        <route edges="0Ni 3Ni 6Ni"/>
    </vehicle>
    <vehicle id="176" reroute="true"  depart="352.00">
        <route edges="8Si 5Si 4Ei 3Ei 0Si"/>
    </vehicle>
    <vehicle id="177" reroute="true"  depart="354.00">
        <route edges="3Wi 4Wi 1Si 2Wi"/>
    </vehicle>
    <vehicle id="178" reroute="true"  depart="356.00">
        <route edges="3Wi 4Wi 5Wi 2Si"/>
    </vehicle>
    <vehicle id="179" reroute="true"  depart="358.00">
        <route edges="2Ni 5Ni 8Ni 7Ei 7So"/>
    </vehicle>
    <vehicle id="180" reroute="true"  depart="360.00">
        <route edges="8Si 5Si 2Si 2No"/>
    </vehicle>
    <vehicle id="181" reroute="true"  depart="362.00">
        <route edges="5Ei 2Si 1Ei 0Ei 0Wo"/>
    </vehicle>
    <vehicle id="182" reroute="true"  depart="364.00">
        <route edges="0Ni 3Ni 6Ni"/>
    </vehicle>
    <vehicle id="183" reroute="true"  depart="366.00">
        <route edges="1Ni 4Ni 7Ni 6Ei"/>
    </vehicle>
    <vehicle id="184" reroute="true"  depart="368.00">
        <route edges="5Ei 8Ni 7Ei 6Ei 6So"/>
    </vehicle>
    <vehicle id="185" reroute="true"  depart="370.00">
        <route edges="2Ni 5Ni 4Ei 3Ei 6Ni"/>
    </vehicle>
    <vehicle id="186" reroute="true"  depart="372.00">
        <route edges="0Wi 1Wi 2Wi 5Ni"/>
    </vehicle>
    <vehicle id="187" reroute="true"  depart="374.00">
        <route edges="2Ei 5Ni 4Ei 3Ei 6Ni"/>
    </vehicle>
    <vehicle id="188" reroute="true"  depart="376.00">
        <route edges="8Si 5Si 2Si 1Ei 0Ei 0No"/>
    </vehicle>
    <vehicle id="189" reroute="true"  depart="378.00">
        <route edges="6Wi 7Wi 4Si 5Wi"/>
    </vehicle>
    <vehicle id="190" reroute="true"  depart="380.00">
        <route edges="2Ni 5Ni 4Ei 3Ei 3Wo"/>
    </vehicle>
    <vehicle id="191" reroute="true"  depart="382.00">
        <route edges="1Ni 4Ni 7Ni 6Ei 6Wo"/>
    </vehicle>
    <vehicle id="192" reroute="true"  depart="384.00">
        <route edges="8Si 5Si 2Si"/>
    </vehicle>
    <vehicle id="193" reroute="true"  depart="386.00">
        <route edges="8Si 5Si 2Si 2No"/>
    </vehicle>
    <vehicle id="194" reroute="true"  depart="388.00">
        <route edges="3Wi 4Wi 5Wi 8Ni 8Eo"/>
    </vehicle>
    <vehicle id="195" reroute="true"  depart="390.00">
        <route edges="0Ni 1Wi 2Wi 5Ni 8Ni 8So"/>
    </vehicle>
    <vehicle id="196" reroute="true"  depart="392.00">
        <route edges="3Wi 4Wi 7Ni 8Wi 5Si"/>
    </vehicle>
    <vehicle id="197" reroute="true"  depart="394.00">
        <route edges="2Ei 5Ni 8Ni 7Ei 6Ei 3Si"/>
    </vehicle>
    <vehicle id="198" reroute="true"  depart="396.00">
        <route edges="6Si 3Si 0Si 1Wi"/>
    </vehicle>
    <vehicle id="199" reroute="true"  depart="398.00">
        <route edges="0Ni 1Wi 4Ni 7Ni 6Ei"/>
    </vehicle>
    <vehicle id="200" reroute="true"  depart="400.00">
        <route edges="2Ei 5Ni 8Ni 7Ei 7So"/>
    </vehicle>
    <vehicle id="201" reroute="true"  depart="402.00">
        <route edges="0Wi 1Wi 2Wi 5Ni 8Ni 8So"/>
    </vehicle>
    <vehicle id="202" reroute="true"  depart="404.00">
        <route edges="0Ni 3Ni 6Ni 6Wo"/>
    </vehicle>
    <vehicle id="203" reroute="true"  depart="406.00">
        <route edges="2Ni 5Ni 8Ni 7Ei 6Ei 6Wo"/>
    </vehicle>
    <vehicle id="204" reroute="true"  depart="408.00">
        <route edges="2Ni 5Ni 8Ni 7Ei 6Ei 6So"/>
    </vehicle>
    <vehicle id="205" reroute="true"  depart="410.00">
        <route edges="6Wi 7Wi 4Si 5Wi"/>
    </vehicle>
    <vehicle id="206" reroute="true"  depart="412.00">
        <route edges="2Ei 5Ni 8Ni 7Ei 6Ei 3Si"/>
    </vehicle>
    <vehicle id="207" reroute="true"  depart="414.00">
        <route edges="3Wi 4Wi 7Ni 8Wi 5Si"/>
    </vehicle>
    <vehicle id="208" reroute="true"  depart="416.00">
        <route edges="7Si 8Wi 5Si 2Si 2No"/>
    </vehicle>
    <vehicle id="209" reroute="true"  depart="418.00">
        <route edges="6Si 7Wi 4Si 1Si 1No"/>
    </vehicle>
    <vehicle id="210" reroute="true"  depart="420.00">
        <route edges="0Wi 1Wi 4Ni 5Wi"/>
    </vehicle>
    <vehicle id="211" reroute="true"  depart="422.00">
        <route edges="6Wi 7Wi 4Si 5Wi"/>
    </vehicle>
    <vehicle id="212" reroute="true"  depart="424.00">
        <route edges="5Ei 2Si 1Ei 0Ei 3Ni"/>
    </vehicle>
    <vehicle id="213" reroute="true"  depart="426.00">
        <route edges="6Wi 7Wi 4Si 5Wi 8Ni"/>
    </vehicle>
    <vehicle id="214" reroute="true"  depart="428.00">
        <route edges="0Ni 1Wi 2Wi 5Ni 8Ni 8So"/>
    </vehicle>
    <vehicle id="215" reroute="true"  depart="430.00">
        <route edges="6Wi 7Wi 8Wi 5Si 2Si 2Eo"/>
    </vehicle>
    <vehicle id="216" reroute="true"  depart="432.00">
        <route edges="8Ei 5Si 4Ei 3Ei"/>
    </vehicle>
    <vehicle id="217" reroute="true"  depart="434.00">
        <route edges="3Wi 4Wi 1Si 2Wi"/>
    </vehicle>
    <vehicle id="218" reroute="true"  depart="436.00">
        <route edges="2Ni 5Ni 8Ni 7Ei 6Ei 6So"/>
    </vehicle>
    <vehicle id="219" reroute="true"  depart="438.00">
        <route edges="5Ei 2Si 1Ei 0Ei 0No"/>
    </vehicle>
    <vehicle id="220" reroute="true"  depart="440.00">
        <route edges="0Ni 1Wi 2Wi 5Ni 8Ni"/>
    </vehicle>
    <vehicle id="221" reroute="true"  depart="442.00">
        <route edges="0Wi 1Wi 2Wi 5Ni 8Ni 8So"/>
    </vehicle>
    <vehicle id="222" reroute="true"  depart="444.00">
        <route edges="6Wi 7Wi 8Wi 5Si 5Eo"/>
    </vehicle>
    <vehicle id="223" reroute="true"  depart="446.00">
        <route edges="6Wi 7Wi 8Wi 5Si 2Si 2Eo"/>
    </vehicle>
    <vehicle id="224" reroute="true"  depart="448.00">
        <route edges="0Wi 1Wi 2Wi 2Eo"/>
    </vehicle>
    <vehicle id="225" reroute="true"  depart="450.00">
        <route edges="0Wi 1Wi 2Wi 2Eo"/>
    </vehicle>
    <vehicle id="226" reroute="true"  depart="452.00">
        <route edges="2Ni 5Ni 4Ei 3Ei 6Ni 7Wi"/>
    </vehicle>
    <vehicle id="227" reroute="true"  depart="454.00">
        <route edges="1Ni 2Wi 5Ni 8Ni"/>
    </vehicle>
    <vehicle id="228" reroute="true"  depart="456.00">
        <route edges="6Wi 7Wi 8Wi 5Si 2Si"/>
    </vehicle>
    <vehicle id="229" reroute="true"  depart="458.00">
        <route edges="1Ni 4Ni 7Ni 7So"/>
    </vehicle>
    <vehicle id="230" reroute="true"  depart="460.00">
        <route edges="1Ni 4Ni 3Ei 3Wo"/>
    </vehicle>
    <vehicle id="231" reroute="true"  depart="462.00">
        <route edges="0Ni 1Wi 2Wi 5Ni 8Ni 7Ei"/>
    </vehicle>
    <vehicle id="232" reroute="true"  depart="464.00">
        <route edges="8Ei 7Ei 6Ei 3Si"/>
    </vehicle>
    <vehicle id="233" reroute="true"  depart="466.00">
        <route edges="5Ei 4Ei 3Ei 6Ni"/>
    </vehicle>
    <vehicle id="234" reroute="true"  depart="468.00">
        <route edges="0Wi 1Wi 2Wi 5Ni 8Ni 8So"/>
    </vehicle>
    <vehicle id="235" reroute="true"  depart="470.00">
        <route edges="6Si 7Wi 8Wi 5Si 5Eo"/>
    </vehicle>
    <vehicle id="236" reroute="true"  depart="472.00">
        <route edges="0Ni 1Wi 2Wi 5Ni 8Ni"/>
    </vehicle>
    <vehicle id="237" reroute="true"  depart="474.00">
        <route edges="0Wi 1Wi 4Ni 7Ni 8Wi"/>
    </vehicle>
    <vehicle id="238" reroute="true"  depart="476.00">
        <route edges="6Si 7Wi 4Si 1Si 2Wi"/>
    </vehicle>
    <vehicle id="239" reroute="true"  depart="478.00">
        <route edges="6Wi 7Wi 8Wi 8Eo"/>
    </vehicle>
    <vehicle id="240" reroute="true"  depart="480.00">
        <route edges="2Ei 1Ei 0Ei 0Wo"/>
    </vehicle>
    <vehicle id="241" reroute="true"  depart="482.00">
        <route edges="2Ni 5Ni 4Ei 3Ei 6Ni"/>
    </vehicle>
    <vehicle id="242" reroute="true"  depart="484.00">
        <route edges="8Ei 5Si 4Ei 3Ei 6Ni"/>
    </vehicle>
    <vehicle id="243" reroute="true"  depart="486.00">
        <route edges="0Wi 1Wi 4Ni 7Ni 8Wi 5Si"/>
    </vehicle>
    <vehicle id="244" reroute="true"  depart="488.00">
        <route edges="6Wi 7Wi 8Wi 5Si 2Si"/>
    </vehicle>
    <vehicle id="245" reroute="true"  depart="490.00">
        <route edges="1Ni 4Ni 7Ni 8Wi"/>
    </vehicle>
    <vehicle id="246" reroute="true"  depart="492.00">
        <route edges="5Ei 2Si 1Ei 0Ei 0No"/>
    </vehicle>
    <vehicle id="247" reroute="true"  depart="494.00">
        <route edges="5Ei 2Si 1Ei 0Ei 3Ni"/>
    </vehicle>
    <vehicle id="248" reroute="true"  depart="496.00">
        <route edges="2Ei 5Ni 8Ni 7Ei 7So"/>
    </vehicle>
    <vehicle id="249" reroute="true"  depart="498.00">
        <route edges="2Ei 5Ni 8Ni 7Ei 6Ei"/>
    </vehicle>
    <vehicle id="250" reroute="true"  depart="500.00">
        <route edges="1Ni 4Ni 7Ni 6Ei"/>
    </vehicle>
    <vehicle id="251" reroute="true"  depart="502.00">
        <route edges="5Ei 8Ni 7Ei 6Ei"/>
    </vehicle>
    <vehicle id="252" reroute="true"  depart="504.00">
        <route edges="1Ni 2Wi 5Ni 8Ni 8So"/>
    </vehicle>
    <vehicle id="253" reroute="true"  depart="506.00">
        <route edges="0Ni 3Ni 6Ni"/>
    </vehicle>
    <vehicle id="254" reroute="true"  depart="508.00">
        <route edges="8Si 5Si 4Ei 3Ei 0Si"/>
    </vehicle>
    <vehicle id="255" reroute="true"  depart="510.00">
        <route edges="8Ei 5Si 2Si 1Ei 0Ei 3Ni"/>
    </vehicle>
    <vehicle id="256" reroute="true"  depart="512.00">
        <route edges="8Ei 5Si 2Si 1Ei 1No"/>
    </vehicle>
    <vehicle id="257" reroute="true"  depart="514.00">
        <route edges="7Si 4Si 1Si 1No"/>
    </vehicle>
    <vehicle id="258" reroute="true"  depart="516.00">
        <route edges="0Wi 1Wi 2Wi 5Ni 8Ni 8So"/>
    </vehicle>
    <vehicle id="259" reroute="true"  depart="518.00">
        <route edges="1Ni 4Ni 3Ei 3Wo"/>