<?xml version="1.0" encoding="UTF-8"?>

<!-- generated on 2025-04-24 12:56:04 by Eclipse SUMO netgenerate Version 1.21.0
<netgenerateConfiguration xmlns:xsi="http://www.w3.org/2001/XMLSchema-instance" xsi:noNamespaceSchemaLocation="http://sumo.dlr.de/xsd/netgenerateConfiguration.xsd">

    <grid_network>
        <grid value="true"/>
        <grid.number value="3"/>
        <grid.length value="200"/>
        <grid.attach-length value="200"/>
    </grid_network>

    <processing>
        <turn-lanes value="2"/>
        <turn-lanes.length value="50"/>
    </processing>

    <tls_building>
        <tls.set value="A0,A1,A2"/>
    </tls_building>

    <junctions>
        <no-turnarounds value="True"/>
    </junctions>

</netgenerateConfiguration>
-->

<net version="1.20" junctionCornerDetail="5" limitTurnSpeed="5.50" xmlns:xsi="http://www.w3.org/2001/XMLSchema-instance" xsi:noNamespaceSchemaLocation="http://sumo.dlr.de/xsd/net_file.xsd">

    <location netOffset="0.00,0.00" convBoundary="0.00,0.00,800.00,800.00" origBoundary="0.00,0.00,800.00,800.00" projParameter="!"/>

    <edge id=":A0_0" function="internal">
        <lane id=":A0_0_0" index="0" speed="6.51" length="9.03" shape="195.20,210.40 194.85,207.95 193.80,206.20 192.05,205.15 189.60,204.80"/>
    </edge>
    <edge id=":A0_1" function="internal">
        <lane id=":A0_1_0" index="0" speed="13.89" length="21.09" shape="198.40,210.40 197.90,203.41 196.80,197.93 195.70,193.48 195.20,189.60"/>
    </edge>
    <edge id=":A0_2" function="internal">
        <lane id=":A0_2_0" index="0" speed="9.32" length="3.32" shape="201.60,210.40 201.87,207.09"/>
    </edge>
    <edge id=":A0_12" function="internal">
        <lane id=":A0_12_0" index="0" speed="9.32" length="16.31" shape="201.87,207.09 202.15,203.75 203.80,199.00 206.55,196.15 210.40,195.20"/>
    </edge>
    <edge id=":A0_3" function="internal">
        <lane id=":A0_3_0" index="0" speed="6.51" length="9.03" shape="210.40,204.80 207.95,205.15 206.20,206.20 205.15,207.95 204.80,210.40"/>
    </edge>
    <edge id=":A0_4" function="internal">
        <lane id=":A0_4_0" index="0" speed="13.89" length="21.09" shape="210.40,201.60 203.41,202.10 197.93,203.20 193.48,204.30 189.60,204.80"/>
    </edge>
    <edge id=":A0_5" function="internal">
        <lane id=":A0_5_0" index="0" speed="9.32" length="3.32" shape="210.40,198.40 207.09,198.13"/>
    </edge>
    <edge id=":A0_13" function="internal">
        <lane id=":A0_13_0" index="0" speed="9.32" length="16.31" shape="207.09,198.13 203.75,197.85 199.00,196.20 196.15,193.45 195.20,189.60"/>
    </edge>
    <edge id=":A0_6" function="internal">
        <lane id=":A0_6_0" index="0" speed="6.51" length="9.03" shape="204.80,189.60 205.15,192.05 206.20,193.80 207.95,194.85 210.40,195.20"/>
    </edge>
    <edge id=":A0_7" function="internal">
        <lane id=":A0_7_0" index="0" speed="13.89" length="21.09" shape="201.60,189.60 202.10,196.59 203.20,202.07 204.30,206.52 204.80,210.40"/>
    </edge>
    <edge id=":A0_8" function="internal">
        <lane id=":A0_8_0" index="0" speed="9.32" length="3.32" shape="198.40,189.60 198.13,192.91"/>
    </edge>
    <edge id=":A0_14" function="internal">
        <lane id=":A0_14_0" index="0" speed="9.32" length="16.31" shape="198.13,192.91 197.85,196.25 196.20,201.00 193.45,203.85 189.60,204.80"/>
    </edge>
    <edge id=":A0_9" function="internal">
        <lane id=":A0_9_0" index="0" speed="6.51" length="9.03" shape="189.60,195.20 192.05,194.85 193.80,193.80 194.85,192.05 195.20,189.60"/>
    </edge>
    <edge id=":A0_10" function="internal">
        <lane id=":A0_10_0" index="0" speed="13.89" length="21.09" shape="189.60,198.40 196.59,197.90 202.07,196.80 206.52,195.70 210.40,195.20"/>
    </edge>
    <edge id=":A0_11" function="internal">
        <lane id=":A0_11_0" index="0" speed="9.32" length="3.32" shape="189.60,201.60 192.91,201.87"/>
    </edge>
    <edge id=":A0_15" function="internal">
        <lane id=":A0_15_0" index="0" speed="9.32" length="16.31" shape="192.91,201.87 196.25,202.15 201.00,203.80 203.85,206.55 204.80,210.40"/>
    </edge>
    <edge id=":A0A1.150.00_0" function="internal">
        <lane id=":A0A1.150.00_0_0" index="0" speed="13.89" length="9.22" shape="204.80,346.00 204.80,354.00"/>
        <lane id=":A0A1.150.00_0_1" index="1" speed="13.89" length="9.22" shape="204.80,346.00 204.30,348.46 203.20,350.00 202.10,351.54 201.60,354.00"/>
        <lane id=":A0A1.150.00_0_2" index="2" speed="13.89" length="9.22" shape="204.80,346.00 203.80,348.64 201.60,349.95 199.40,351.29 198.40,354.00"/>
    </edge>
    <edge id=":A0B0.150.00_0" function="internal">
        <lane id=":A0B0.150.00_0_0" index="0" speed="13.89" length="9.22" shape="346.00,195.20 354.00,195.20"/>
        <lane id=":A0B0.150.00_0_1" index="1" speed="13.89" length="9.22" shape="346.00,195.20 348.46,195.70 350.00,196.80 351.54,197.90 354.00,198.40"/>
        <lane id=":A0B0.150.00_0_2" index="2" speed="13.89" length="9.22" shape="346.00,195.20 348.64,196.20 349.95,198.40 351.29,200.60 354.00,201.60"/>
    </edge>
    <edge id=":A1_0" function="internal">
        <lane id=":A1_0_0" index="0" speed="6.51" length="9.03" shape="195.20,410.40 194.85,407.95 193.80,406.20 192.05,405.15 189.60,404.80"/>
    </edge>
    <edge id=":A1_1" function="internal">
        <lane id=":A1_1_0" index="0" speed="13.89" length="21.09" shape="198.40,410.40 197.90,403.41 196.80,397.93 195.70,393.48 195.20,389.60"/>
    </edge>
    <edge id=":A1_2" function="internal">
        <lane id=":A1_2_0" index="0" speed="9.32" length="3.32" shape="201.60,410.40 201.87,407.09"/>
    </edge>
    <edge id=":A1_12" function="internal">
        <lane id=":A1_12_0" index="0" speed="9.32" length="16.31" shape="201.87,407.09 202.15,403.75 203.80,399.00 206.55,396.15 210.40,395.20"/>
    </edge>
    <edge id=":A1_3" function="internal">
        <lane id=":A1_3_0" index="0" speed="6.51" length="9.03" shape="210.40,404.80 207.95,405.15 206.20,406.20 205.15,407.95 204.80,410.40"/>
    </edge>
    <edge id=":A1_4" function="internal">
        <lane id=":A1_4_0" index="0" speed="13.89" length="21.09" shape="210.40,401.60 203.41,402.10 197.93,403.20 193.48,404.30 189.60,404.80"/>
    </edge>
    <edge id=":A1_5" function="internal">
        <lane id=":A1_5_0" index="0" speed="9.32" length="3.32" shape="210.40,398.40 207.09,398.13"/>
    </edge>
    <edge id=":A1_13" function="internal">
        <lane id=":A1_13_0" index="0" speed="9.32" length="16.31" shape="207.09,398.13 203.75,397.85 199.00,396.20 196.15,393.45 195.20,389.60"/>
    </edge>
    <edge id=":A1_6" function="internal">
        <lane id=":A1_6_0" index="0" speed="6.51" length="9.03" shape="204.80,389.60 205.15,392.05 206.20,393.80 207.95,394.85 210.40,395.20"/>
    </edge>
    <edge id=":A1_7" function="internal">
        <lane id=":A1_7_0" index="0" speed="13.89" length="21.09" shape="201.60,389.60 202.10,396.59 203.20,402.07 204.30,406.52 204.80,410.40"/>
    </edge>
    <edge id=":A1_8" function="internal">
        <lane id=":A1_8_0" index="0" speed="9.32" length="3.32" shape="198.40,389.60 198.13,392.91"/>
    </edge>
    <edge id=":A1_14" function="internal">
        <lane id=":A1_14_0" index="0" speed="9.32" length="16.31" shape="198.13,392.91 197.85,396.25 196.20,401.00 193.45,403.85 189.60,404.80"/>
    </edge>
    <edge id=":A1_9" function="internal">
        <lane id=":A1_9_0" index="0" speed="6.51" length="9.03" shape="189.60,395.20 192.05,394.85 193.80,393.80 194.85,392.05 195.20,389.60"/>
    </edge>
    <edge id=":A1_10" function="internal">
        <lane id=":A1_10_0" index="0" speed="13.89" length="21.09" shape="189.60,398.40 196.59,397.90 202.07,396.80 206.52,395.70 210.40,395.20"/>
    </edge>
    <edge id=":A1_11" function="internal">
        <lane id=":A1_11_0" index="0" speed="9.32" length="3.32" shape="189.60,401.60 192.91,401.87"/>
    </edge>
    <edge id=":A1_15" function="internal">
        <lane id=":A1_15_0" index="0" speed="9.32" length="16.31" shape="192.91,401.87 196.25,402.15 201.00,403.80 203.85,406.55 204.80,410.40"/>
    </edge>
    <edge id=":A1A0.150.00_0" function="internal">
        <lane id=":A1A0.150.00_0_0" index="0" speed="13.89" length="9.22" shape="195.20,254.00 195.20,246.00"/>
        <lane id=":A1A0.150.00_0_1" index="1" speed="13.89" length="9.22" shape="195.20,254.00 195.70,251.54 196.80,250.00 197.90,248.46 198.40,246.00"/>
        <lane id=":A1A0.150.00_0_2" index="2" speed="13.89" length="9.22" shape="195.20,254.00 196.20,251.36 198.40,250.05 200.60,248.71 201.60,246.00"/>
    </edge>
    <edge id=":A1A2.150.00_0" function="internal">
        <lane id=":A1A2.150.00_0_0" index="0" speed="13.89" length="9.22" shape="204.80,546.00 204.80,554.00"/>
        <lane id=":A1A2.150.00_0_1" index="1" speed="13.89" length="9.22" shape="204.80,546.00 204.30,548.46 203.20,550.00 202.10,551.54 201.60,554.00"/>
        <lane id=":A1A2.150.00_0_2" index="2" speed="13.89" length="9.22" shape="204.80,546.00 203.80,548.64 201.60,549.95 199.40,551.29 198.40,554.00"/>
    </edge>
    <edge id=":A1B1.150.00_0" function="internal">
        <lane id=":A1B1.150.00_0_0" index="0" speed="13.89" length="9.22" shape="346.00,395.20 354.00,395.20"/>
        <lane id=":A1B1.150.00_0_1" index="1" speed="13.89" length="9.22" shape="346.00,395.20 348.46,395.70 350.00,396.80 351.54,397.90 354.00,398.40"/>
        <lane id=":A1B1.150.00_0_2" index="2" speed="13.89" length="9.22" shape="346.00,395.20 348.64,396.20 349.95,398.40 351.29,400.60 354.00,401.60"/>
    </edge>
    <edge id=":A2_0" function="internal">
        <lane id=":A2_0_0" index="0" speed="6.51" length="9.03" shape="195.20,610.40 194.85,607.95 193.80,606.20 192.05,605.15 189.60,604.80"/>
    </edge>
    <edge id=":A2_1" function="internal">
        <lane id=":A2_1_0" index="0" speed="13.89" length="21.09" shape="198.40,610.40 197.90,603.41 196.80,597.93 195.70,593.48 195.20,589.60"/>
    </edge>
    <edge id=":A2_2" function="internal">
        <lane id=":A2_2_0" index="0" speed="9.32" length="3.32" shape="201.60,610.40 201.87,607.09"/>
    </edge>
    <edge id=":A2_12" function="internal">
        <lane id=":A2_12_0" index="0" speed="9.32" length="16.31" shape="201.87,607.09 202.15,603.75 203.80,599.00 206.55,596.15 210.40,595.20"/>
    </edge>
    <edge id=":A2_3" function="internal">
        <lane id=":A2_3_0" index="0" speed="6.51" length="9.03" shape="210.40,604.80 207.95,605.15 206.20,606.20 205.15,607.95 204.80,610.40"/>
    </edge>
    <edge id=":A2_4" function="internal">
        <lane id=":A2_4_0" index="0" speed="13.89" length="21.09" shape="210.40,601.60 203.41,602.10 197.93,603.20 193.48,604.30 189.60,604.80"/>
    </edge>
    <edge id=":A2_5" function="internal">
        <lane id=":A2_5_0" index="0" speed="9.32" length="3.32" shape="210.40,598.40 207.09,598.13"/>
    </edge>
    <edge id=":A2_13" function="internal">
        <lane id=":A2_13_0" index="0" speed="9.32" length="16.31" shape="207.09,598.13 203.75,597.85 199.00,596.20 196.15,593.45 195.20,589.60"/>
    </edge>
    <edge id=":A2_6" function="internal">
        <lane id=":A2_6_0" index="0" speed="6.51" length="9.03" shape="204.80,589.60 205.15,592.05 206.20,593.80 207.95,594.85 210.40,595.20"/>
    </edge>
    <edge id=":A2_7" function="internal">
        <lane id=":A2_7_0" index="0" speed="13.89" length="21.09" shape="201.60,589.60 202.10,596.59 203.20,602.07 204.30,606.52 204.80,610.40"/>
    </edge>
    <edge id=":A2_8" function="internal">
        <lane id=":A2_8_0" index="0" speed="9.32" length="3.32" shape="198.40,589.60 198.13,592.91"/>
    </edge>
    <edge id=":A2_14" function="internal">
        <lane id=":A2_14_0" index="0" speed="9.32" length="16.31" shape="198.13,592.91 197.85,596.25 196.20,601.00 193.45,603.85 189.60,604.80"/>
    </edge>
    <edge id=":A2_9" function="internal">
        <lane id=":A2_9_0" index="0" speed="6.51" length="9.03" shape="189.60,595.20 192.05,594.85 193.80,593.80 194.85,592.05 195.20,589.60"/>
    </edge>
    <edge id=":A2_10" function="internal">
        <lane id=":A2_10_0" index="0" speed="13.89" length="21.09" shape="189.60,598.40 196.59,597.90 202.07,596.80 206.52,595.70 210.40,595.20"/>
    </edge>
    <edge id=":A2_11" function="internal">
        <lane id=":A2_11_0" index="0" speed="9.32" length="3.32" shape="189.60,601.60 192.91,601.87"/>
    </edge>
    <edge id=":A2_15" function="internal">
        <lane id=":A2_15_0" index="0" speed="9.32" length="16.31" shape="192.91,601.87 196.25,602.15 201.00,603.80 203.85,606.55 204.80,610.40"/>
    </edge>
    <edge id=":A2A1.150.00_0" function="internal">
        <lane id=":A2A1.150.00_0_0" index="0" speed="13.89" length="9.22" shape="195.20,454.00 195.20,446.00"/>
        <lane id=":A2A1.150.00_0_1" index="1" speed="13.89" length="9.22" shape="195.20,454.00 195.70,451.54 196.80,450.00 197.90,448.46 198.40,446.00"/>
        <lane id=":A2A1.150.00_0_2" index="2" speed="13.89" length="9.22" shape="195.20,454.00 196.20,451.36 198.40,450.05 200.60,448.71 201.60,446.00"/>
    </edge>
    <edge id=":A2B2.150.00_0" function="internal">
        <lane id=":A2B2.150.00_0_0" index="0" speed="13.89" length="9.22" shape="346.00,595.20 354.00,595.20"/>
        <lane id=":A2B2.150.00_0_1" index="1" speed="13.89" length="9.22" shape="346.00,595.20 348.46,595.70 350.00,596.80 351.54,597.90 354.00,598.40"/>
        <lane id=":A2B2.150.00_0_2" index="2" speed="13.89" length="9.22" shape="346.00,595.20 348.64,596.20 349.95,598.40 351.29,600.60 354.00,601.60"/>
    </edge>
    <edge id=":B0_0" function="internal">
        <lane id=":B0_0_0" index="0" speed="6.51" length="9.03" shape="395.20,210.40 394.85,207.95 393.80,206.20 392.05,205.15 389.60,204.80"/>
    </edge>
    <edge id=":B0_1" function="internal">
        <lane id=":B0_1_0" index="0" speed="13.89" length="21.09" shape="398.40,210.40 397.90,203.41 396.80,197.93 395.70,193.48 395.20,189.60"/>
    </edge>
    <edge id=":B0_2" function="internal">
        <lane id=":B0_2_0" index="0" speed="9.32" length="3.32" shape="401.60,210.40 401.87,207.09"/>
    </edge>
    <edge id=":B0_12" function="internal">
        <lane id=":B0_12_0" index="0" speed="9.32" length="16.31" shape="401.87,207.09 402.15,203.75 403.80,199.00 406.55,196.15 410.40,195.20"/>
    </edge>
    <edge id=":B0_3" function="internal">
        <lane id=":B0_3_0" index="0" speed="6.51" length="9.03" shape="410.40,204.80 407.95,205.15 406.20,206.20 405.15,207.95 404.80,210.40"/>
    </edge>
    <edge id=":B0_4" function="internal">
        <lane id=":B0_4_0" index="0" speed="13.89" length="21.09" shape="410.40,201.60 403.41,202.10 397.93,203.20 393.48,204.30 389.60,204.80"/>
    </edge>
    <edge id=":B0_5" function="internal">
        <lane id=":B0_5_0" index="0" speed="9.32" length="19.63" shape="410.40,198.40 403.75,197.85 399.00,196.20 396.15,193.45 395.20,189.60"/>
    </edge>
    <edge id=":B0_6" function="internal">
        <lane id=":B0_6_0" index="0" speed="6.51" length="9.03" shape="404.80,189.60 405.15,192.05 406.20,193.80 407.95,194.85 410.40,195.20"/>
    </edge>
    <edge id=":B0_7" function="internal">
        <lane id=":B0_7_0" index="0" speed="13.89" length="21.09" shape="401.60,189.60 402.10,196.59 403.20,202.07 404.30,206.52 404.80,210.40"/>
    </edge>
    <edge id=":B0_8" function="internal">
        <lane id=":B0_8_0" index="0" speed="9.32" length="3.32" shape="398.40,189.60 398.13,192.91"/>
    </edge>
    <edge id=":B0_13" function="internal">
        <lane id=":B0_13_0" index="0" speed="9.32" length="16.31" shape="398.13,192.91 397.85,196.25 396.20,201.00 393.45,203.85 389.60,204.80"/>
    </edge>
    <edge id=":B0_9" function="internal">
        <lane id=":B0_9_0" index="0" speed="6.51" length="9.03" shape="389.60,195.20 392.05,194.85 393.80,193.80 394.85,192.05 395.20,189.60"/>
    </edge>
    <edge id=":B0_10" function="internal">
        <lane id=":B0_10_0" index="0" speed="13.89" length="21.09" shape="389.60,198.40 396.59,197.90 402.07,196.80 406.52,195.70 410.40,195.20"/>
    </edge>
    <edge id=":B0_11" function="internal">
        <lane id=":B0_11_0" index="0" speed="9.32" length="19.63" shape="389.60,201.60 396.25,202.15 401.00,203.80 403.85,206.55 404.80,210.40"/>
    </edge>
    <edge id=":B0A0.150.00_0" function="internal">
        <lane id=":B0A0.150.00_0_0" index="0" speed="13.89" length="9.22" shape="254.00,204.80 246.00,204.80"/>
        <lane id=":B0A0.150.00_0_1" index="1" speed="13.89" length="9.22" shape="254.00,204.80 251.54,204.30 250.00,203.20 248.46,202.10 246.00,201.60"/>
        <lane id=":B0A0.150.00_0_2" index="2" speed="13.89" length="9.22" shape="254.00,204.80 251.36,203.80 250.05,201.60 248.71,199.40 246.00,198.40"/>
    </edge>
    <edge id=":B0B1.150.00_0" function="internal">
        <lane id=":B0B1.150.00_0_0" index="0" speed="13.89" length="9.22" shape="404.80,346.00 404.80,354.00"/>
        <lane id=":B0B1.150.00_0_1" index="1" speed="13.89" length="9.22" shape="404.80,346.00 404.30,348.46 403.20,350.00 402.10,351.54 401.60,354.00"/>
        <lane id=":B0B1.150.00_0_2" index="2" speed="13.89" length="9.22" shape="404.80,346.00 403.80,348.64 401.60,349.95 399.40,351.29 398.40,354.00"/>
    </edge>
    <edge id=":B0C0.150.00_0" function="internal">
        <lane id=":B0C0.150.00_0_0" index="0" speed="13.89" length="9.22" shape="546.00,195.20 554.00,195.20"/>
        <lane id=":B0C0.150.00_0_1" index="1" speed="13.89" length="9.22" shape="546.00,195.20 548.46,195.70 550.00,196.80 551.54,197.90 554.00,198.40"/>
        <lane id=":B0C0.150.00_0_2" index="2" speed="13.89" length="9.22" shape="546.00,195.20 548.64,196.20 549.95,198.40 551.29,200.60 554.00,201.60"/>
    </edge>
    <edge id=":B1_0" function="internal">
        <lane id=":B1_0_0" index="0" speed="6.51" length="9.03" shape="395.20,410.40 394.85,407.95 393.80,406.20 392.05,405.15 389.60,404.80"/>
    </edge>
    <edge id=":B1_1" function="internal">
        <lane id=":B1_1_0" index="0" speed="13.89" length="21.09" shape="398.40,410.40 397.90,403.41 396.80,397.93 395.70,393.48 395.20,389.60"/>
    </edge>
    <edge id=":B1_2" function="internal">
        <lane id=":B1_2_0" index="0" speed="9.32" length="3.32" shape="401.60,410.40 401.87,407.09"/>
    </edge>
    <edge id=":B1_12" function="internal">
        <lane id=":B1_12_0" index="0" speed="9.32" length="16.31" shape="401.87,407.09 402.15,403.75 403.80,399.00 406.55,396.15 410.40,395.20"/>
    </edge>
    <edge id=":B1_3" function="internal">
        <lane id=":B1_3_0" index="0" speed="6.51" length="9.03" shape="410.40,404.80 407.95,405.15 406.20,406.20 405.15,407.95 404.80,410.40"/>
    </edge>
    <edge id=":B1_4" function="internal">
        <lane id=":B1_4_0" index="0" speed="13.89" length="21.09" shape="410.40,401.60 403.41,402.10 397.93,403.20 393.48,404.30 389.60,404.80"/>
    </edge>
    <edge id=":B1_5" function="internal">
        <lane id=":B1_5_0" index="0" speed="9.32" length="19.63" shape="410.40,398.40 403.75,397.85 399.00,396.20 396.15,393.45 395.20,389.60"/>
    </edge>
    <edge id=":B1_6" function="internal">
        <lane id=":B1_6_0" index="0" speed="6.51" length="9.03" shape="404.80,389.60 405.15,392.05 406.20,393.80 407.95,394.85 410.40,395.20"/>
    </edge>
    <edge id=":B1_7" function="internal">
        <lane id=":B1_7_0" index="0" speed="13.89" length="21.09" shape="401.60,389.60 402.10,396.59 403.20,402.07 404.30,406.52 404.80,410.40"/>
    </edge>
    <edge id=":B1_8" function="internal">
        <lane id=":B1_8_0" index="0" speed="9.32" length="3.32" shape="398.40,389.60 398.13,392.91"/>
    </edge>
    <edge id=":B1_13" function="internal">
        <lane id=":B1_13_0" index="0" speed="9.32" length="16.31" shape="398.13,392.91 397.85,396.25 396.20,401.00 393.45,403.85 389.60,404.80"/>
    </edge>
    <edge id=":B1_9" function="internal">
        <lane id=":B1_9_0" index="0" speed="6.51" length="9.03" shape="389.60,395.20 392.05,394.85 393.80,393.80 394.85,392.05 395.20,389.60"/>
    </edge>
    <edge id=":B1_10" function="internal">
        <lane id=":B1_10_0" index="0" speed="13.89" length="21.09" shape="389.60,398.40 396.59,397.90 402.07,396.80 406.52,395.70 410.40,395.20"/>
    </edge>
    <edge id=":B1_11" function="internal">
        <lane id=":B1_11_0" index="0" speed="9.32" length="19.63" shape="389.60,401.60 396.25,402.15 401.00,403.80 403.85,406.55 404.80,410.40"/>
    </edge>
    <edge id=":B1A1.150.00_0" function="internal">
        <lane id=":B1A1.150.00_0_0" index="0" speed="13.89" length="9.22" shape="254.00,404.80 246.00,404.80"/>
        <lane id=":B1A1.150.00_0_1" index="1" speed="13.89" length="9.22" shape="254.00,404.80 251.54,404.30 250.00,403.20 248.46,402.10 246.00,401.60"/>
        <lane id=":B1A1.150.00_0_2" index="2" speed="13.89" length="9.22" shape="254.00,404.80 251.36,403.80 250.05,401.60 248.71,399.40 246.00,398.40"/>
    </edge>
    <edge id=":B1B0.150.00_0" function="internal">
        <lane id=":B1B0.150.00_0_0" index="0" speed="13.89" length="9.22" shape="395.20,254.00 395.20,246.00"/>
        <lane id=":B1B0.150.00_0_1" index="1" speed="13.89" length="9.22" shape="395.20,254.00 395.70,251.54 396.80,250.00 397.90,248.46 398.40,246.00"/>
        <lane id=":B1B0.150.00_0_2" index="2" speed="13.89" length="9.22" shape="395.20,254.00 396.20,251.36 398.40,250.05 400.60,248.71 401.60,246.00"/>
    </edge>
    <edge id=":B1B2.150.00_0" function="internal">
        <lane id=":B1B2.150.00_0_0" index="0" speed="13.89" length="9.22" shape="404.80,546.00 404.80,554.00"/>
        <lane id=":B1B2.150.00_0_1" index="1" speed="13.89" length="9.22" shape="404.80,546.00 404.30,548.46 403.20,550.00 402.10,551.54 401.60,554.00"/>
        <lane id=":B1B2.150.00_0_2" index="2" speed="13.89" length="9.22" shape="404.80,546.00 403.80,548.64 401.60,549.95 399.40,551.29 398.40,554.00"/>
    </edge>
    <edge id=":B1C1.150.00_0" function="internal">
        <lane id=":B1C1.150.00_0_0" index="0" speed="13.89" length="9.22" shape="546.00,395.20 554.00,395.20"/>
        <lane id=":B1C1.150.00_0_1" index="1" speed="13.89" length="9.22" shape="546.00,395.20 548.46,395.70 550.00,396.80 551.54,397.90 554.00,398.40"/>
        <lane id=":B1C1.150.00_0_2" index="2" speed="13.89" length="9.22" shape="546.00,395.20 548.64,396.20 549.95,398.40 551.29,400.60 554.00,401.60"/>
    </edge>
    <edge id=":B2_0" function="internal">
        <lane id=":B2_0_0" index="0" speed="6.51" length="9.03" shape="395.20,610.40 394.85,607.95 393.80,606.20 392.05,605.15 389.60,604.80"/>
    </edge>
    <edge id=":B2_1" function="internal">
        <lane id=":B2_1_0" index="0" speed="13.89" length="21.09" shape="398.40,610.40 397.90,603.41 396.80,597.93 395.70,593.48 395.20,589.60"/>
    </edge>
    <edge id=":B2_2" function="internal">
        <lane id=":B2_2_0" index="0" speed="9.32" length="3.32" shape="401.60,610.40 401.87,607.09"/>
    </edge>
    <edge id=":B2_12" function="internal">
        <lane id=":B2_12_0" index="0" speed="9.32" length="16.31" shape="401.87,607.09 402.15,603.75 403.80,599.00 406.55,596.15 410.40,595.20"/>
    </edge>
    <edge id=":B2_3" function="internal">
        <lane id=":B2_3_0" index="0" speed="6.51" length="9.03" shape="410.40,604.80 407.95,605.15 406.20,606.20 405.15,607.95 404.80,610.40"/>
    </edge>
    <edge id=":B2_4" function="internal">
        <lane id=":B2_4_0" index="0" speed="13.89" length="21.09" shape="410.40,601.60 403.41,602.10 397.93,603.20 393.48,604.30 389.60,604.80"/>
    </edge>
    <edge id=":B2_5" function="internal">
        <lane id=":B2_5_0" index="0" speed="9.32" length="19.63" shape="410.40,598.40 403.75,597.85 399.00,596.20 396.15,593.45 395.20,589.60"/>
    </edge>
    <edge id=":B2_6" function="internal">
        <lane id=":B2_6_0" index="0" speed="6.51" length="9.03" shape="404.80,589.60 405.15,592.05 406.20,593.80 407.95,594.85 410.40,595.20"/>
    </edge>
    <edge id=":B2_7" function="internal">
        <lane id=":B2_7_0" index="0" speed="13.89" length="21.09" shape="401.60,589.60 402.10,596.59 403.20,602.07 404.30,606.52 404.80,610.40"/>
    </edge>
    <edge id=":B2_8" function="internal">
        <lane id=":B2_8_0" index="0" speed="9.32" length="3.32" shape="398.40,589.60 398.13,592.91"/>
    </edge>
    <edge id=":B2_13" function="internal">
        <lane id=":B2_13_0" index="0" speed="9.32" length="16.31" shape="398.13,592.91 397.85,596.25 396.20,601.00 393.45,603.85 389.60,604.80"/>
    </edge>
    <edge id=":B2_9" function="internal">
        <lane id=":B2_9_0" index="0" speed="6.51" length="9.03" shape="389.60,595.20 392.05,594.85 393.80,593.80 394.85,592.05 395.20,589.60"/>
    </edge>
    <edge id=":B2_10" function="internal">
        <lane id=":B2_10_0" index="0" speed="13.89" length="21.09" shape="389.60,598.40 396.59,597.90 402.07,596.80 406.52,595.70 410.40,595.20"/>
    </edge>
    <edge id=":B2_11" function="internal">
        <lane id=":B2_11_0" index="0" speed="9.32" length="19.63" shape="389.60,601.60 396.25,602.15 401.00,603.80 403.85,606.55 404.80,610.40"/>
    </edge>
    <edge id=":B2A2.150.00_0" function="internal">
        <lane id=":B2A2.150.00_0_0" index="0" speed="13.89" length="9.22" shape="254.00,604.80 246.00,604.80"/>
        <lane id=":B2A2.150.00_0_1" index="1" speed="13.89" length="9.22" shape="254.00,604.80 251.54,604.30 250.00,603.20 248.46,602.10 246.00,601.60"/>
        <lane id=":B2A2.150.00_0_2" index="2" speed="13.89" length="9.22" shape="254.00,604.80 251.36,603.80 250.05,601.60 248.71,599.40 246.00,598.40"/>
    </edge>
    <edge id=":B2B1.150.00_0" function="internal">
        <lane id=":B2B1.150.00_0_0" index="0" speed="13.89" length="9.22" shape="395.20,454.00 395.20,446.00"/>
        <lane id=":B2B1.150.00_0_1" index="1" speed="13.89" length="9.22" shape="395.20,454.00 395.70,451.54 396.80,450.00 397.90,448.46 398.40,446.00"/>
        <lane id=":B2B1.150.00_0_2" index="2" speed="13.89" length="9.22" shape="395.20,454.00 396.20,451.36 398.40,450.05 400.60,448.71 401.60,446.00"/>
    </edge>
    <edge id=":B2C2.150.00_0" function="internal">
        <lane id=":B2C2.150.00_0_0" index="0" speed="13.89" length="9.22" shape="546.00,595.20 554.00,595.20"/>
        <lane id=":B2C2.150.00_0_1" index="1" speed="13.89" length="9.22" shape="546.00,595.20 548.46,595.70 550.00,596.80 551.54,597.90 554.00,598.40"/>
        <lane id=":B2C2.150.00_0_2" index="2" speed="13.89" length="9.22" shape="546.00,595.20 548.64,596.20 549.95,598.40 551.29,600.60 554.00,601.60"/>
    </edge>
    <edge id=":C0_0" function="internal">
        <lane id=":C0_0_0" index="0" speed="6.51" length="9.03" shape="595.20,210.40 594.85,207.95 593.80,206.20 592.05,205.15 589.60,204.80"/>
    </edge>
    <edge id=":C0_1" function="internal">
        <lane id=":C0_1_0" index="0" speed="13.89" length="21.09" shape="598.40,210.40 597.90,203.41 596.80,197.93 595.70,193.48 595.20,189.60"/>
    </edge>
    <edge id=":C0_2" function="internal">
        <lane id=":C0_2_0" index="0" speed="9.32" length="3.32" shape="601.60,210.40 601.87,207.09"/>
    </edge>
    <edge id=":C0_12" function="internal">
        <lane id=":C0_12_0" index="0" speed="9.32" length="16.31" shape="601.87,207.09 602.15,203.75 603.80,199.00 606.55,196.15 610.40,195.20"/>
    </edge>
    <edge id=":C0_3" function="internal">
        <lane id=":C0_3_0" index="0" speed="6.51" length="9.03" shape="610.40,204.80 607.95,205.15 606.20,206.20 605.15,207.95 604.80,210.40"/>
    </edge>
    <edge id=":C0_4" function="internal">
        <lane id=":C0_4_0" index="0" speed="13.89" length="21.09" shape="610.40,201.60 603.41,202.10 597.93,203.20 593.48,204.30 589.60,204.80"/>
    </edge>
    <edge id=":C0_5" function="internal">
        <lane id=":C0_5_0" index="0" speed="9.32" length="19.63" shape="610.40,198.40 603.75,197.85 599.00,196.20 596.15,193.45 595.20,189.60"/>
    </edge>
    <edge id=":C0_6" function="internal">
        <lane id=":C0_6_0" index="0" speed="6.51" length="9.03" shape="604.80,189.60 605.15,192.05 606.20,193.80 607.95,194.85 610.40,195.20"/>
    </edge>
    <edge id=":C0_7" function="internal">
        <lane id=":C0_7_0" index="0" speed="13.89" length="21.09" shape="601.60,189.60 602.10,196.59 603.20,202.07 604.30,206.52 604.80,210.40"/>
    </edge>
    <edge id=":C0_8" function="internal">
        <lane id=":C0_8_0" index="0" speed="9.32" length="3.32" shape="598.40,189.60 598.13,192.91"/>
    </edge>
    <edge id=":C0_13" function="internal">
        <lane id=":C0_13_0" index="0" speed="9.32" length="16.31" shape="598.13,192.91 597.85,196.25 596.20,201.00 593.45,203.85 589.60,204.80"/>
    </edge>
    <edge id=":C0_9" function="internal">
        <lane id=":C0_9_0" index="0" speed="6.51" length="9.03" shape="589.60,195.20 592.05,194.85 593.80,193.80 594.85,192.05 595.20,189.60"/>
    </edge>
    <edge id=":C0_10" function="internal">
        <lane id=":C0_10_0" index="0" speed="13.89" length="21.09" shape="589.60,198.40 596.59,197.90 602.07,196.80 606.52,195.70 610.40,195.20"/>
    </edge>
    <edge id=":C0_11" function="internal">
        <lane id=":C0_11_0" index="0" speed="9.32" length="19.63" shape="589.60,201.60 596.25,202.15 601.00,203.80 603.85,206.55 604.80,210.40"/>
    </edge>
    <edge id=":C0B0.150.00_0" function="internal">
        <lane id=":C0B0.150.00_0_0" index="0" speed="13.89" length="9.22" shape="454.00,204.80 446.00,204.80"/>
        <lane id=":C0B0.150.00_0_1" index="1" speed="13.89" length="9.22" shape="454.00,204.80 451.54,204.30 450.00,203.20 448.46,202.10 446.00,201.60"/>
        <lane id=":C0B0.150.00_0_2" index="2" speed="13.89" length="9.22" shape="454.00,204.80 451.36,203.80 450.05,201.60 448.71,199.40 446.00,198.40"/>
    </edge>
    <edge id=":C0C1.150.00_0" function="internal">
        <lane id=":C0C1.150.00_0_0" index="0" speed="13.89" length="9.22" shape="604.80,346.00 604.80,354.00"/>
        <lane id=":C0C1.150.00_0_1" index="1" speed="13.89" length="9.22" shape="604.80,346.00 604.30,348.46 603.20,350.00 602.10,351.54 601.60,354.00"/>