<?xml version="1.0" encoding="UTF-8"?>

<configuration>
    <input>
       <net-file value="grid.net.xml"/>
        <route-files value="grid.rou.xml"/>
    </input>
	<time>
        <begin value="0"/>
        <end value="3600"/>
    </time>
    <time-to-teleport value="-1"/> <!-- If the value is not positive, teleporting due to grid-lock is disabled.-->
</configuration>
