<edges>
	<edge from="n" id="n-t" to="t" numLanes="2"/>
	<edge from="t" id="t-n" to="n" numLanes="2"/>

	<edge from="w" id="w-t" to="t" numLanes="2"/>
	<edge from="t" id="t-w" to="w" numLanes="2"/>

	<edge from="t" id="t-s" to="s" numLanes="2"/>
	<edge from="s" id="s-t" to="t" numLanes="2"/>

	<edge from="t" id="t-e" to="e" numLanes="2"/>
	<edge from="e" id="e-t" to="t" numLanes="2"/>
</edges>
