<?xml version="1.0" encoding="UTF-8"?>

<!-- generated on 2025-04-24 13:10:26 by Eclipse SUMO netgenerate Version 1.21.0
<netgenerateConfiguration xmlns:xsi="http://www.w3.org/2001/XMLSchema-instance" xsi:noNamespaceSchemaLocation="http://sumo.dlr.de/xsd/netgenerateConfiguration.xsd">

    <grid_network>
        <grid value="true"/>
        <grid.number value="3"/>
        <grid.length value="200"/>
        <grid.attach-length value="200"/>
    </grid_network>

    <output>
        <output-file value="3x3Grid3lanes.net.xml"/>
    </output>

    <processing>
        <turn-lanes value="2"/>
        <turn-lanes.length value="150"/>
    </processing>

    <tls_building>
        <tls.set value="A0,A1,A2,B0,B1,B2,C0,C1,C2"/>
    </tls_building>

    <junctions>
        <no-turnarounds value="True"/>
    </junctions>

</netgenerateConfiguration>
-->

<net version="1.20" junctionCornerDetail="5" limitTurnSpeed="5.50" xmlns:xsi="http://www.w3.org/2001/XMLSchema-instance" xsi:noNamespaceSchemaLocation="http://sumo.dlr.de/xsd/net_file.xsd">

    <location netOffset="0.00,0.00" convBoundary="0.00,0.00,800.00,800.00" origBoundary="0.00,0.00,800.00,800.00" projParameter="!"/>

    <edge id=":A0_0" function="internal">
        <lane id=":A0_0_0" index="0" speed="8.10" length="14.57" shape="192.00,213.60 191.65,208.35 190.60,204.60 188.85,202.35 186.40,201.60"/>
    </edge>
    <edge id=":A0_1" function="internal">
        <lane id=":A0_1_0" index="0" speed="13.89" length="27.42" shape="195.20,213.60 195.70,204.28 196.80,196.74 197.90,190.83 198.40,186.40"/>
    </edge>
    <edge id=":A0_2" function="internal">
        <lane id=":A0_2_0" index="0" speed="11.39" length="17.58" shape="198.40,213.60 199.35,204.15 202.20,197.40 202.78,196.91"/>
    </edge>
    <edge id=":A0_12" function="internal">
        <lane id=":A0_12_0" index="0" speed="11.39" length="12.27" shape="202.78,196.91 206.95,193.35 213.60,192.00"/>
    </edge>
    <edge id=":A0_3" function="internal">
        <lane id=":A0_3_0" index="0" speed="6.51" length="9.03" shape="213.60,208.00 211.15,208.35 209.40,209.40 208.35,211.15 208.00,213.60"/>
    </edge>
    <edge id=":A0_4" function="internal">
        <lane id=":A0_4_0" index="0" speed="13.89" length="27.42" shape="213.60,204.80 204.28,204.30 196.74,203.20 190.83,202.10 186.40,201.60"/>
    </edge>
    <edge id=":A0_5" function="internal">
        <lane id=":A0_5_0" index="0" speed="10.36" length="13.67" shape="213.60,201.60 206.95,200.65 202.20,197.80 201.47,196.59"/>
    </edge>
    <edge id=":A0_13" function="internal">
        <lane id=":A0_13_0" index="0" speed="10.36" length="10.84" shape="201.47,196.59 199.35,193.05 198.40,186.40"/>
    </edge>
    <edge id=":A0_6" function="internal">
        <lane id=":A0_6_0" index="0" speed="6.51" length="9.03" shape="208.00,186.40 208.35,188.85 209.40,190.60 211.15,191.65 213.60,192.00"/>
    </edge>
    <edge id=":A0_7" function="internal">
        <lane id=":A0_7_0" index="0" speed="13.89" length="27.42" shape="204.80,186.40 205.30,195.72 206.40,203.26 207.50,209.17 208.00,213.60"/>
    </edge>
    <edge id=":A0_8" function="internal">
        <lane id=":A0_8_0" index="0" speed="10.36" length="8.26" shape="201.60,186.40 200.65,193.05 199.85,194.38"/>
    </edge>
    <edge id=":A0_14" function="internal">
        <lane id=":A0_14_0" index="0" speed="10.36" length="16.25" shape="199.85,194.38 197.80,197.80 193.05,200.65 186.40,201.60"/>
    </edge>
    <edge id=":A0_9" function="internal">
        <lane id=":A0_9_0" index="0" speed="8.10" length="14.57" shape="186.40,192.00 191.65,191.65 195.40,190.60 197.65,188.85 198.40,186.40"/>
    </edge>
    <edge id=":A0_10" function="internal">
        <lane id=":A0_10_0" index="0" speed="13.89" length="27.42" shape="186.40,195.20 195.72,194.70 203.26,193.60 209.17,192.50 213.60,192.00"/>
    </edge>
    <edge id=":A0_11" function="internal">
        <lane id=":A0_11_0" index="0" speed="11.39" length="14.03" shape="186.40,198.40 195.85,199.35 200.03,201.11"/>
    </edge>
    <edge id=":A0_15" function="internal">
        <lane id=":A0_15_0" index="0" speed="11.39" length="15.82" shape="200.03,201.11 202.60,202.20 206.65,206.95 208.00,213.60"/>
    </edge>
    <edge id=":A0A1.50.00_0" function="internal">
        <lane id=":A0A1.50.00_0_0" index="0" speed="13.89" length="9.22" shape="208.00,246.00 208.00,254.00"/>
        <lane id=":A0A1.50.00_0_1" index="1" speed="13.89" length="9.22" shape="208.00,246.00 207.50,248.46 206.40,250.00 205.30,251.54 204.80,254.00"/>
        <lane id=":A0A1.50.00_0_2" index="2" speed="13.89" length="9.22" shape="208.00,246.00 207.00,248.64 204.80,249.95 202.60,251.29 201.60,254.00"/>
    </edge>
    <edge id=":A0B0.50.00_0" function="internal">
        <lane id=":A0B0.50.00_0_0" index="0" speed="13.89" length="9.22" shape="246.00,192.00 254.00,192.00"/>
        <lane id=":A0B0.50.00_0_1" index="1" speed="13.89" length="9.22" shape="246.00,192.00 248.46,192.50 250.00,193.60 251.54,194.70 254.00,195.20"/>
        <lane id=":A0B0.50.00_0_2" index="2" speed="13.89" length="9.22" shape="246.00,192.00 248.64,193.00 249.95,195.20 251.29,197.40 254.00,198.40"/>
    </edge>
    <edge id=":A1_0" function="internal">
        <lane id=":A1_0_0" index="0" speed="8.10" length="14.57" shape="192.00,413.60 191.65,408.35 190.60,404.60 188.85,402.35 186.40,401.60"/>
    </edge>
    <edge id=":A1_1" function="internal">
        <lane id=":A1_1_0" index="0" speed="13.89" length="27.42" shape="195.20,413.60 194.70,404.28 193.60,396.74 192.50,390.83 192.00,386.40"/>
    </edge>
    <edge id=":A1_2" function="internal">
        <lane id=":A1_2_0" index="0" speed="11.39" length="17.58" shape="198.40,413.60 199.35,404.15 202.20,397.40 202.78,396.91"/>
    </edge>
    <edge id=":A1_12" function="internal">
        <lane id=":A1_12_0" index="0" speed="11.39" length="12.27" shape="202.78,396.91 206.95,393.35 213.60,392.00"/>
    </edge>
    <edge id=":A1_3" function="internal">
        <lane id=":A1_3_0" index="0" speed="6.51" length="9.03" shape="213.60,408.00 211.15,408.35 209.40,409.40 208.35,411.15 208.00,413.60"/>
    </edge>
    <edge id=":A1_4" function="internal">
        <lane id=":A1_4_0" index="0" speed="13.89" length="27.42" shape="213.60,404.80 204.28,404.30 196.74,403.20 190.83,402.10 186.40,401.60"/>
    </edge>
    <edge id=":A1_5" function="internal">
        <lane id=":A1_5_0" index="0" speed="11.39" length="17.58" shape="213.60,401.60 204.15,400.65 197.40,397.80 196.91,397.22"/>
    </edge>
    <edge id=":A1_13" function="internal">
        <lane id=":A1_13_0" index="0" speed="11.39" length="12.27" shape="196.91,397.22 193.35,393.05 192.00,386.40"/>
    </edge>
    <edge id=":A1_6" function="internal">
        <lane id=":A1_6_0" index="0" speed="6.51" length="9.03" shape="208.00,386.40 208.35,388.85 209.40,390.60 211.15,391.65 213.60,392.00"/>
    </edge>
    <edge id=":A1_7" function="internal">
        <lane id=":A1_7_0" index="0" speed="13.89" length="27.42" shape="204.80,386.40 205.30,395.72 206.40,403.26 207.50,409.17 208.00,413.60"/>
    </edge>
    <edge id=":A1_8" function="internal">
        <lane id=":A1_8_0" index="0" speed="10.36" length="13.67" shape="201.60,386.40 200.65,393.05 197.80,397.80 196.59,398.53"/>
    </edge>
    <edge id=":A1_14" function="internal">
        <lane id=":A1_14_0" index="0" speed="10.36" length="10.84" shape="196.59,398.53 193.05,400.65 186.40,401.60"/>
    </edge>
    <edge id=":A1_9" function="internal">
        <lane id=":A1_9_0" index="0" speed="6.51" length="9.03" shape="186.40,392.00 188.85,391.65 190.60,390.60 191.65,388.85 192.00,386.40"/>
    </edge>
    <edge id=":A1_10" function="internal">
        <lane id=":A1_10_0" index="0" speed="13.89" length="27.42" shape="186.40,395.20 195.72,394.70 203.26,393.60 209.17,392.50 213.60,392.00"/>
    </edge>
    <edge id=":A1_11" function="internal">
        <lane id=":A1_11_0" index="0" speed="11.39" length="14.03" shape="186.40,398.40 195.85,399.35 200.03,401.11"/>
    </edge>
    <edge id=":A1_15" function="internal">
        <lane id=":A1_15_0" index="0" speed="11.39" length="15.82" shape="200.03,401.11 202.60,402.20 206.65,406.95 208.00,413.60"/>
    </edge>
    <edge id=":A1A0.50.00_0" function="internal">
        <lane id=":A1A0.50.00_0_0" index="0" speed="13.89" length="9.22" shape="192.00,354.00 192.00,346.00"/>
        <lane id=":A1A0.50.00_0_1" index="1" speed="13.89" length="9.22" shape="192.00,354.00 192.50,351.54 193.60,350.00 194.70,348.46 195.20,346.00"/>
        <lane id=":A1A0.50.00_0_2" index="2" speed="13.89" length="9.22" shape="192.00,354.00 193.00,351.36 195.20,350.05 197.40,348.71 198.40,346.00"/>
    </edge>
    <edge id=":A1A2.50.00_0" function="internal">
        <lane id=":A1A2.50.00_0_0" index="0" speed="13.89" length="9.22" shape="208.00,446.00 208.00,454.00"/>
        <lane id=":A1A2.50.00_0_1" index="1" speed="13.89" length="9.22" shape="208.00,446.00 207.50,448.46 206.40,450.00 205.30,451.54 204.80,454.00"/>
        <lane id=":A1A2.50.00_0_2" index="2" speed="13.89" length="9.22" shape="208.00,446.00 207.00,448.64 204.80,449.95 202.60,451.29 201.60,454.00"/>
    </edge>
    <edge id=":A1B1.50.00_0" function="internal">
        <lane id=":A1B1.50.00_0_0" index="0" speed="13.89" length="9.22" shape="246.00,392.00 254.00,392.00"/>
        <lane id=":A1B1.50.00_0_1" index="1" speed="13.89" length="9.22" shape="246.00,392.00 248.46,392.50 250.00,393.60 251.54,394.70 254.00,395.20"/>
        <lane id=":A1B1.50.00_0_2" index="2" speed="13.89" length="9.22" shape="246.00,392.00 248.64,393.00 249.95,395.20 251.29,397.40 254.00,398.40"/>
    </edge>
    <edge id=":A2_0" function="internal">
        <lane id=":A2_0_0" index="0" speed="8.10" length="14.57" shape="192.00,613.60 191.65,608.35 190.60,604.60 188.85,602.35 186.40,601.60"/>
    </edge>
    <edge id=":A2_1" function="internal">
        <lane id=":A2_1_0" index="0" speed="13.89" length="27.42" shape="195.20,613.60 194.70,604.28 193.60,596.74 192.50,590.83 192.00,586.40"/>
    </edge>
    <edge id=":A2_2" function="internal">
        <lane id=":A2_2_0" index="0" speed="11.39" length="14.03" shape="198.40,613.60 199.35,604.15 201.11,599.97"/>
    </edge>
    <edge id=":A2_12" function="internal">
        <lane id=":A2_12_0" index="0" speed="11.39" length="15.82" shape="201.11,599.97 202.20,597.40 206.95,593.35 213.60,592.00"/>
    </edge>
    <edge id=":A2_3" function="internal">
        <lane id=":A2_3_0" index="0" speed="8.10" length="14.57" shape="213.60,608.00 208.35,608.35 204.60,609.40 202.35,611.15 201.60,613.60"/>
    </edge>
    <edge id=":A2_4" function="internal">
        <lane id=":A2_4_0" index="0" speed="13.89" length="27.42" shape="213.60,604.80 204.28,604.30 196.74,603.20 190.83,602.10 186.40,601.60"/>
    </edge>
    <edge id=":A2_5" function="internal">
        <lane id=":A2_5_0" index="0" speed="11.39" length="17.58" shape="213.60,601.60 204.15,600.65 197.40,597.80 196.91,597.22"/>
    </edge>
    <edge id=":A2_13" function="internal">
        <lane id=":A2_13_0" index="0" speed="11.39" length="12.27" shape="196.91,597.22 193.35,593.05 192.00,586.40"/>
    </edge>
    <edge id=":A2_6" function="internal">
        <lane id=":A2_6_0" index="0" speed="6.51" length="9.03" shape="208.00,586.40 208.35,588.85 209.40,590.60 211.15,591.65 213.60,592.00"/>
    </edge>
    <edge id=":A2_7" function="internal">
        <lane id=":A2_7_0" index="0" speed="13.89" length="27.42" shape="204.80,586.40 204.30,595.72 203.20,603.26 202.10,609.17 201.60,613.60"/>
    </edge>
    <edge id=":A2_8" function="internal">
        <lane id=":A2_8_0" index="0" speed="10.36" length="13.67" shape="201.60,586.40 200.65,593.05 197.80,597.80 196.59,598.53"/>
    </edge>
    <edge id=":A2_14" function="internal">
        <lane id=":A2_14_0" index="0" speed="10.36" length="10.84" shape="196.59,598.53 193.05,600.65 186.40,601.60"/>
    </edge>
    <edge id=":A2_9" function="internal">
        <lane id=":A2_9_0" index="0" speed="6.51" length="9.03" shape="186.40,592.00 188.85,591.65 190.60,590.60 191.65,588.85 192.00,586.40"/>
    </edge>
    <edge id=":A2_10" function="internal">
        <lane id=":A2_10_0" index="0" speed="13.89" length="27.42" shape="186.40,595.20 195.72,594.70 203.26,593.60 209.17,592.50 213.60,592.00"/>
    </edge>
    <edge id=":A2_11" function="internal">
        <lane id=":A2_11_0" index="0" speed="10.36" length="8.26" shape="186.40,598.40 193.05,599.35 194.38,600.15"/>
    </edge>
    <edge id=":A2_15" function="internal">
        <lane id=":A2_15_0" index="0" speed="10.36" length="16.25" shape="194.38,600.15 197.80,602.20 200.65,606.95 201.60,613.60"/>
    </edge>
    <edge id=":A2A1.50.00_0" function="internal">
        <lane id=":A2A1.50.00_0_0" index="0" speed="13.89" length="9.22" shape="192.00,554.00 192.00,546.00"/>
        <lane id=":A2A1.50.00_0_1" index="1" speed="13.89" length="9.22" shape="192.00,554.00 192.50,551.54 193.60,550.00 194.70,548.46 195.20,546.00"/>
        <lane id=":A2A1.50.00_0_2" index="2" speed="13.89" length="9.22" shape="192.00,554.00 193.00,551.36 195.20,550.05 197.40,548.71 198.40,546.00"/>
    </edge>
    <edge id=":A2B2.50.00_0" function="internal">
        <lane id=":A2B2.50.00_0_0" index="0" speed="13.89" length="9.22" shape="246.00,592.00 254.00,592.00"/>
        <lane id=":A2B2.50.00_0_1" index="1" speed="13.89" length="9.22" shape="246.00,592.00 248.46,592.50 250.00,593.60 251.54,594.70 254.00,595.20"/>
        <lane id=":A2B2.50.00_0_2" index="2" speed="13.89" length="9.22" shape="246.00,592.00 248.64,593.00 249.95,595.20 251.29,597.40 254.00,598.40"/>
    </edge>
    <edge id=":B0_0" function="internal">
        <lane id=":B0_0_0" index="0" speed="6.51" length="9.03" shape="392.00,213.60 391.65,211.15 390.60,209.40 388.85,208.35 386.40,208.00"/>
    </edge>
    <edge id=":B0_1" function="internal">
        <lane id=":B0_1_0" index="0" speed="13.89" length="27.42" shape="395.20,213.60 395.70,204.28 396.80,196.74 397.90,190.83 398.40,186.40"/>
    </edge>
    <edge id=":B0_2" function="internal">
        <lane id=":B0_2_0" index="0" speed="11.39" length="17.58" shape="398.40,213.60 399.35,204.15 402.20,197.40 402.78,196.91"/>
    </edge>
    <edge id=":B0_12" function="internal">
        <lane id=":B0_12_0" index="0" speed="11.39" length="12.27" shape="402.78,196.91 406.95,193.35 413.60,192.00"/>
    </edge>
    <edge id=":B0_3" function="internal">
        <lane id=":B0_3_0" index="0" speed="6.51" length="9.03" shape="413.60,208.00 411.15,208.35 409.40,209.40 408.35,211.15 408.00,213.60"/>
    </edge>
    <edge id=":B0_4" function="internal">
        <lane id=":B0_4_0" index="0" speed="13.89" length="27.42" shape="413.60,204.80 404.28,205.30 396.74,206.40 390.83,207.50 386.40,208.00"/>
    </edge>
    <edge id=":B0_5" function="internal">
        <lane id=":B0_5_0" index="0" speed="10.36" length="13.67" shape="413.60,201.60 406.95,200.65 402.20,197.80 401.47,196.59"/>
    </edge>
    <edge id=":B0_13" function="internal">
        <lane id=":B0_13_0" index="0" speed="10.36" length="10.84" shape="401.47,196.59 399.35,193.05 398.40,186.40"/>
    </edge>
    <edge id=":B0_6" function="internal">
        <lane id=":B0_6_0" index="0" speed="6.51" length="9.03" shape="408.00,186.40 408.35,188.85 409.40,190.60 411.15,191.65 413.60,192.00"/>
    </edge>
    <edge id=":B0_7" function="internal">
        <lane id=":B0_7_0" index="0" speed="13.89" length="27.42" shape="404.80,186.40 405.30,195.72 406.40,203.26 407.50,209.17 408.00,213.60"/>
    </edge>
    <edge id=":B0_8" function="internal">
        <lane id=":B0_8_0" index="0" speed="11.39" length="14.03" shape="401.60,186.40 400.65,195.85 398.89,200.03"/>
    </edge>
    <edge id=":B0_14" function="internal">
        <lane id=":B0_14_0" index="0" speed="11.39" length="15.82" shape="398.89,200.03 397.80,202.60 393.05,206.65 386.40,208.00"/>
    </edge>
    <edge id=":B0_9" function="internal">
        <lane id=":B0_9_0" index="0" speed="8.10" length="14.57" shape="386.40,192.00 391.65,191.65 395.40,190.60 397.65,188.85 398.40,186.40"/>
    </edge>
    <edge id=":B0_10" function="internal">
        <lane id=":B0_10_0" index="0" speed="13.89" length="27.42" shape="386.40,195.20 395.72,194.70 403.26,193.60 409.17,192.50 413.60,192.00"/>
    </edge>
    <edge id=":B0_11" function="internal">
        <lane id=":B0_11_0" index="0" speed="11.39" length="17.58" shape="386.40,198.40 395.85,199.35 402.60,202.20 403.09,202.78"/>
    </edge>
    <edge id=":B0_15" function="internal">
        <lane id=":B0_15_0" index="0" speed="11.39" length="12.27" shape="403.09,202.78 406.65,206.95 408.00,213.60"/>
    </edge>
    <edge id=":B0A0.50.00_0" function="internal">
        <lane id=":B0A0.50.00_0_0" index="0" speed="13.89" length="9.22" shape="354.00,208.00 346.00,208.00"/>
        <lane id=":B0A0.50.00_0_1" index="1" speed="13.89" length="9.22" shape="354.00,208.00 351.54,207.50 350.00,206.40 348.46,205.30 346.00,204.80"/>
        <lane id=":B0A0.50.00_0_2" index="2" speed="13.89" length="9.22" shape="354.00,208.00 351.36,207.00 350.05,204.80 348.71,202.60 346.00,201.60"/>
    </edge>
    <edge id=":B0B1.50.00_0" function="internal">
        <lane id=":B0B1.50.00_0_0" index="0" speed="13.89" length="9.22" shape="408.00,246.00 408.00,254.00"/>
        <lane id=":B0B1.50.00_0_1" index="1" speed="13.89" length="9.22" shape="408.00,246.00 407.50,248.46 406.40,250.00 405.30,251.54 404.80,254.00"/>
        <lane id=":B0B1.50.00_0_2" index="2" speed="13.89" length="9.22" shape="408.00,246.00 407.00,248.64 404.80,249.95 402.60,251.29 401.60,254.00"/>
    </edge>
    <edge id=":B0C0.50.00_0" function="internal">
        <lane id=":B0C0.50.00_0_0" index="0" speed="13.89" length="9.22" shape="446.00,192.00 454.00,192.00"/>
        <lane id=":B0C0.50.00_0_1" index="1" speed="13.89" length="9.22" shape="446.00,192.00 448.46,192.50 450.00,193.60 451.54,194.70 454.00,195.20"/>
        <lane id=":B0C0.50.00_0_2" index="2" speed="13.89" length="9.22" shape="446.00,192.00 448.64,193.00 449.95,195.20 451.29,197.40 454.00,198.40"/>
    </edge>
    <edge id=":B1_0" function="internal">
        <lane id=":B1_0_0" index="0" speed="6.51" length="9.03" shape="392.00,413.60 391.65,411.15 390.60,409.40 388.85,408.35 386.40,408.00"/>
    </edge>
    <edge id=":B1_1" function="internal">
        <lane id=":B1_1_0" index="0" speed="13.89" length="27.42" shape="395.20,413.60 394.70,404.28 393.60,396.74 392.50,390.83 392.00,386.40"/>
    </edge>
    <edge id=":B1_2" function="internal">
        <lane id=":B1_2_0" index="0" speed="11.39" length="17.58" shape="398.40,413.60 399.35,404.15 402.20,397.40 402.78,396.91"/>
    </edge>
    <edge id=":B1_12" function="internal">
        <lane id=":B1_12_0" index="0" speed="11.39" length="12.27" shape="402.78,396.91 406.95,393.35 413.60,392.00"/>
    </edge>
    <edge id=":B1_3" function="internal">
        <lane id=":B1_3_0" index="0" speed="6.51" length="9.03" shape="413.60,408.00 411.15,408.35 409.40,409.40 408.35,411.15 408.00,413.60"/>
    </edge>
    <edge id=":B1_4" function="internal">
        <lane id=":B1_4_0" index="0" speed="13.89" length="27.42" shape="413.60,404.80 404.28,405.30 396.74,406.40 390.83,407.50 386.40,408.00"/>
    </edge>
    <edge id=":B1_5" function="internal">
        <lane id=":B1_5_0" index="0" speed="11.39" length="17.58" shape="413.60,401.60 404.15,400.65 397.40,397.80 396.91,397.22"/>
    </edge>
    <edge id=":B1_13" function="internal">
        <lane id=":B1_13_0" index="0" speed="11.39" length="12.27" shape="396.91,397.22 393.35,393.05 392.00,386.40"/>
    </edge>
    <edge id=":B1_6" function="internal">
        <lane id=":B1_6_0" index="0" speed="6.51" length="9.03" shape="408.00,386.40 408.35,388.85 409.40,390.60 411.15,391.65 413.60,392.00"/>
    </edge>
    <edge id=":B1_7" function="internal">
        <lane id=":B1_7_0" index="0" speed="13.89" length="27.42" shape="404.80,386.40 405.30,395.72 406.40,403.26 407.50,409.17 408.00,413.60"/>
    </edge>
    <edge id=":B1_8" function="internal">
        <lane id=":B1_8_0" index="0" speed="11.39" length="17.58" shape="401.60,386.40 400.65,395.85 397.80,402.60 397.22,403.09"/>
    </edge>
    <edge id=":B1_14" function="internal">
        <lane id=":B1_14_0" index="0" speed="11.39" length="12.27" shape="397.22,403.09 393.05,406.65 386.40,408.00"/>
    </edge>
    <edge id=":B1_9" function="internal">
        <lane id=":B1_9_0" index="0" speed="6.51" length="9.03" shape="386.40,392.00 388.85,391.65 390.60,390.60 391.65,388.85 392.00,386.40"/>
    </edge>
    <edge id=":B1_10" function="internal">
        <lane id=":B1_10_0" index="0" speed="13.89" length="27.42" shape="386.40,395.20 395.72,394.70 403.26,393.60 409.17,392.50 413.60,392.00"/>
    </edge>
    <edge id=":B1_11" function="internal">
        <lane id=":B1_11_0" index="0" speed="11.39" length="17.58" shape="386.40,398.40 395.85,399.35 402.60,402.20 403.09,402.78"/>
    </edge>
    <edge id=":B1_15" function="internal">
        <lane id=":B1_15_0" index="0" speed="11.39" length="12.27" shape="403.09,402.78 406.65,406.95 408.00,413.60"/>
    </edge>
    <edge id=":B1A1.50.00_0" function="internal">
        <lane id=":B1A1.50.00_0_0" index="0" speed="13.89" length="9.22" shape="354.00,408.00 346.00,408.00"/>
        <lane id=":B1A1.50.00_0_1" index="1" speed="13.89" length="9.22" shape="354.00,408.00 351.54,407.50 350.00,406.40 348.46,405.30 346.00,404.80"/>
        <lane id=":B1A1.50.00_0_2" index="2" speed="13.89" length="9.22" shape="354.00,408.00 351.36,407.00 350.05,404.80 348.71,402.60 346.00,401.60"/>
    </edge>
    <edge id=":B1B0.50.00_0" function="internal">
        <lane id=":B1B0.50.00_0_0" index="0" speed="13.89" length="9.22" shape="392.00,354.00 392.00,346.00"/>
        <lane id=":B1B0.50.00_0_1" index="1" speed="13.89" length="9.22" shape="392.00,354.00 392.50,351.54 393.60,350.00 394.70,348.46 395.20,346.00"/>
        <lane id=":B1B0.50.00_0_2" index="2" speed="13.89" length="9.22" shape="392.00,354.00 393.00,351.36 395.20,350.05 397.40,348.71 398.40,346.00"/>
    </edge>
    <edge id=":B1B2.50.00_0" function="internal">
        <lane id=":B1B2.50.00_0_0" index="0" speed="13.89" length="9.22" shape="408.00,446.00 408.00,454.00"/>
        <lane id=":B1B2.50.00_0_1" index="1" speed="13.89" length="9.22" shape="408.00,446.00 407.50,448.46 406.40,450.00 405.30,451.54 404.80,454.00"/>
        <lane id=":B1B2.50.00_0_2" index="2" speed="13.89" length="9.22" shape="408.00,446.00 407.00,448.64 404.80,449.95 402.60,451.29 401.60,454.00"/>
    </edge>
    <edge id=":B1C1.50.00_0" function="internal">
        <lane id=":B1C1.50.00_0_0" index="0" speed="13.89" length="9.22" shape="446.00,392.00 454.00,392.00"/>
        <lane id=":B1C1.50.00_0_1" index="1" speed="13.89" length="9.22" shape="446.00,392.00 448.46,392.50 450.00,393.60 451.54,394.70 454.00,395.20"/>
        <lane id=":B1C1.50.00_0_2" index="2" speed="13.89" length="9.22" shape="446.00,392.00 448.64,393.00 449.95,395.20 451.29,397.40 454.00,398.40"/>
    </edge>
    <edge id=":B2_0" function="internal">
        <lane id=":B2_0_0" index="0" speed="6.51" length="9.03" shape="392.00,613.60 391.65,611.15 390.60,609.40 388.85,608.35 386.40,608.00"/>
    </edge>
    <edge id=":B2_1" function="internal">
        <lane id=":B2_1_0" index="0" speed="13.89" length="27.42" shape="395.20,613.60 394.70,604.28 393.60,596.74 392.50,590.83 392.00,586.40"/>
    </edge>
    <edge id=":B2_2" function="internal">
        <lane id=":B2_2_0" index="0" speed="11.39" length="14.03" shape="398.40,613.60 399.35,604.15 401.11,599.97"/>
    </edge>
    <edge id=":B2_12" function="internal">
        <lane id=":B2_12_0" index="0" speed="11.39" length="15.82" shape="401.11,599.97 402.20,597.40 406.95,593.35 413.60,592.00"/>
    </edge>
    <edge id=":B2_3" function="internal">
        <lane id=":B2_3_0" index="0" speed="8.10" length="14.57" shape="413.60,608.00 408.35,608.35 404.60,609.40 402.35,611.15 401.60,613.60"/>
    </edge>
    <edge id=":B2_4" function="internal">
        <lane id=":B2_4_0" index="0" speed="13.89" length="27.42" shape="413.60,604.80 404.28,605.30 396.74,606.40 390.83,607.50 386.40,608.00"/>
    </edge>
    <edge id=":B2_5" function="internal">
        <lane id=":B2_5_0" index="0" speed="11.39" length="17.58" shape="413.60,601.60 404.15,600.65 397.40,597.80 396.91,597.22"/>
    </edge>
    <edge id=":B2_13" function="internal">
        <lane id=":B2_13_0" index="0" speed="11.39" length="12.27" shape="396.91,597.22 393.35,593.05 392.00,586.40"/>
    </edge>
    <edge id=":B2_6" function="internal">
        <lane id=":B2_6_0" index="0" speed="6.51" length="9.03" shape="408.00,586.40 408.35,588.85 409.40,590.60 411.15,591.65 413.60,592.00"/>
    </edge>
    <edge id=":B2_7" function="internal">
        <lane id=":B2_7_0" index="0" speed="13.89" length="27.42" shape="404.80,586.40 404.30,595.72 403.20,603.26 402.10,609.17 401.60,613.60"/>
    </edge>
    <edge id=":B2_8" function="internal">
        <lane id=":B2_8_0" index="0" speed="11.39" length="17.58" shape="401.60,586.40 400.65,595.85 397.80,602.60 397.22,603.09"/>
    </edge>
    <edge id=":B2_14" function="internal">
        <lane id=":B2_14_0" index="0" speed="11.39" length="12.27" shape="397.22,603.09 393.05,606.65 386.40,608.00"/>
    </edge>
    <edge id=":B2_9" function="internal">
        <lane id=":B2_9_0" index="0" speed="6.51" length="9.03" shape="386.40,592.00 388.85,591.65 390.60,590.60 391.65,588.85 392.00,586.40"/>
    </edge>
    <edge id=":B2_10" function="internal">
        <lane id=":B2_10_0" index="0" speed="13.89" length="27.42" shape="386.40,595.20 395.72,594.70 403.26,593.60 409.17,592.50 413.60,592.00"/>
    </edge>
    <edge id=":B2_11" function="internal">
        <lane id=":B2_11_0" index="0" speed="10.36" length="13.67" shape="386.40,598.40 393.05,599.35 397.80,602.20 398.53,603.41"/>
    </edge>
    <edge id=":B2_15" function="internal">
        <lane id=":B2_15_0" index="0" speed="10.36" length="10.84" shape="398.53,603.41 400.65,606.95 401.60,613.60"/>
    </edge>
    <edge id=":B2A2.50.00_0" function="internal">
        <lane id=":B2A2.50.00_0_0" index="0" speed="13.89" length="9.22" shape="354.00,608.00 346.00,608.00"/>
        <lane id=":B2A2.50.00_0_1" index="1" speed="13.89" length="9.22" shape="354.00,608.00 351.54,607.50 350.00,606.40 348.46,605.30 346.00,604.80"/>
        <lane id=":B2A2.50.00_0_2" index="2" speed="13.89" length="9.22" shape="354.00,608.00 351.36,607.00 350.05,604.80 348.71,602.60 346.00,601.60"/>
    </edge>
    <edge id=":B2B1.50.00_0" function="internal">
        <lane id=":B2B1.50.00_0_0" index="0" speed="13.89" length="9.22" shape="392.00,554.00 392.00,546.00"/>
        <lane id=":B2B1.50.00_0_1" index="1" speed="13.89" length="9.22" shape="392.00,554.00 392.50,551.54 393.60,550.00 394.70,548.46 395.20,546.00"/>
        <lane id=":B2B1.50.00_0_2" index="2" speed="13.89" length="9.22" shape="392.00,554.00 393.00,551.36 395.20,550.05 397.40,548.71 398.40,546.00"/>
    </edge>
    <edge id=":B2C2.50.00_0" function="internal">
        <lane id=":B2C2.50.00_0_0" index="0" speed="13.89" length="9.22" shape="446.00,592.00 454.00,592.00"/>
        <lane id=":B2C2.50.00_0_1" index="1" speed="13.89" length="9.22" shape="446.00,592.00 448.46,592.50 450.00,593.60 451.54,594.70 454.00,595.20"/>
        <lane id=":B2C2.50.00_0_2" index="2" speed="13.89" length="9.22" shape="446.00,592.00 448.64,593.00 449.95,595.20 451.29,597.40 454.00,598.40"/>
    </edge>
    <edge id=":C0_0" function="internal">
        <lane id=":C0_0_0" index="0" speed="6.51" length="9.03" shape="592.00,213.60 591.65,211.15 590.60,209.40 588.85,208.35 586.40,208.00"/>
    </edge>
    <edge id=":C0_1" function="internal">
        <lane id=":C0_1_0" index="0" speed="13.89" length="27.42" shape="595.20,213.60 595.70,204.28 596.80,196.74 597.90,190.83 598.40,186.40"/>
    </edge>
    <edge id=":C0_2" function="internal">
        <lane id=":C0_2_0" index="0" speed="10.36" length="13.67" shape="598.40,213.60 599.35,206.95 602.20,202.20 603.41,201.47"/>
    </edge>
    <edge id=":C0_12" function="internal">
        <lane id=":C0_12_0" index="0" speed="10.36" length="10.84" shape="603.41,201.47 606.95,199.35 613.60,198.40"/>
    </edge>
    <edge id=":C0_3" function="internal">
        <lane id=":C0_3_0" index="0" speed="6.51" length="9.03" shape="613.60,208.00 611.15,208.35 609.40,209.40 608.35,211.15 608.00,213.60"/>
    </edge>
    <edge id=":C0_4" function="internal">
        <lane id=":C0_4_0" index="0" speed="13.89" length="27.42" shape="613.60,204.80 604.28,205.30 596.74,206.40 590.83,207.50 586.40,208.00"/>
    </edge>
    <edge id=":C0_5" function="internal">
        <lane id=":C0_5_0" index="0" speed="10.36" length="8.26" shape="613.60,201.60 606.95,200.65 605.62,199.85"/>
    </edge>
    <edge id=":C0_13" function="internal">
        <lane id=":C0_13_0" index="0" speed="10.36" length="16.25" shape="605.62,199.85 602.20,197.80 599.35,193.05 598.40,186.40"/>
    </edge>
    <edge id=":C0_6" function="internal">
        <lane id=":C0_6_0" index="0" speed="8.10" length="14.57" shape="608.00,186.40 608.35,191.65 609.40,195.40 611.15,197.65 613.60,198.40"/>
    </edge>
    <edge id=":C0_7" function="internal">
        <lane id=":C0_7_0" index="0" speed="13.89" length="27.42" shape="604.80,186.40 605.30,195.72 606.40,203.26 607.50,209.17 608.00,213.60"/>
    </edge>
    <edge id=":C0_8" function="internal">
        <lane id=":C0_8_0" index="0" speed="11.39" length="14.03" shape="601.60,186.40 600.65,195.85 598.89,200.03"/>
    </edge>
    <edge id=":C0_14" function="internal">
        <lane id=":C0_14_0" index="0" speed="11.39" length="15.82" shape="598.89,200.03 597.80,202.60 593.05,206.65 586.40,208.00"/>
    </edge>
    <edge id=":C0_9" function="internal">