<?xml version="1.0" encoding="UTF-8"?>

<!-- generated on 2025-04-22 08:24:03 by Eclipse SUMO duarouter Version 1.22.0
<duarouterConfiguration xmlns:xsi="http://www.w3.org/2001/XMLSchema-instance" xsi:noNamespaceSchemaLocation="http://sumo.dlr.de/xsd/duarouterConfiguration.xsd">

    <input>
        <net-file value="3x3Grid2lanes.net.xml"/>
        <route-files value="3x3Grid2lanes.trips.xml"/>
    </input>

    <output>
        <output-file value="3x3Grid2lanes.rou.xml"/>
    </output>

</duarouterConfiguration>
-->

<routes xmlns:xsi="http://www.w3.org/2001/XMLSchema-instance" xsi:noNamespaceSchemaLocation="http://sumo.dlr.de/xsd/routes_file.xsd">
    <vehicle id="0" reroute="true" depart="0.00">
        <route edges="7Ni 6Ei 6Wo"/>
        <param key="device.rerouting.probability" value="1"/>
        <param key="device.rerouting.period"      value="60"/>
        <param key="device.rerouting.pre-period"  value="60"/>
    </vehicle>
    <vehicle id="1" reroute="true" depart="2.00">
        <route edges="2Ei 5Ni 8Ni 7Ei 4Si"/>
        <param key="device.rerouting.probability" value="1"/>
        <param key="device.rerouting.period"      value="60"/>
        <param key="device.rerouting.pre-period"  value="60"/>
    </vehicle>
    <vehicle id="2" reroute="true" depart="4.00">
        <route edges="3Si 0Si 1Wi 2Wi 5Ni 4Ei"/>
        <param key="device.rerouting.probability" value="1"/>
        <param key="device.rerouting.period"      value="60"/>
        <param key="device.rerouting.pre-period"  value="60"/>
    </vehicle>
    <vehicle id="3" reroute="true" depart="6.00">
        <route edges="0Si 1Wi 4Ni 7Ni 6Ei 3Si"/>
        <param key="device.rerouting.probability" value="1"/>
        <param key="device.rerouting.period"      value="60"/>
        <param key="device.rerouting.pre-period"  value="60"/>
    </vehicle>
    <vehicle id="4" reroute="true" depart="8.00">
        <route edges="3Si 4Wi 5Wi 2Si"/>
        <param key="device.rerouting.probability" value="1"/>
        <param key="device.rerouting.period"      value="60"/>
        <param key="device.rerouting.pre-period"  value="60"/>
    </vehicle>
    <vehicle id="5" reroute="true" depart="10.00">
        <route edges="6Wi 6So"/>
        <param key="device.rerouting.probability" value="1"/>
        <param key="device.rerouting.period"      value="60"/>
        <param key="device.rerouting.pre-period"  value="60"/>
    </vehicle>
    <vehicle id="6" reroute="true" depart="12.00">
        <route edges="4Wi 7Ni"/>
        <param key="device.rerouting.probability" value="1"/>
        <param key="device.rerouting.period"      value="60"/>
        <param key="device.rerouting.pre-period"  value="60"/>
    </vehicle>
    <vehicle id="7" reroute="true" depart="14.00">
        <route edges="7Ni 6Ei 3Si 0Si 1Wi 4Ni"/>
        <param key="device.rerouting.probability" value="1"/>
        <param key="device.rerouting.period"      value="60"/>
        <param key="device.rerouting.pre-period"  value="60"/>
    </vehicle>
    <vehicle id="8" reroute="true" depart="16.00">
        <route edges="8Si 8Eo"/>
        <param key="device.rerouting.probability" value="1"/>
        <param key="device.rerouting.period"      value="60"/>
        <param key="device.rerouting.pre-period"  value="60"/>
    </vehicle>
    <vehicle id="9" reroute="true" depart="18.00">
        <route edges="5Ni 4Ei 3Ei 0Si 0No"/>
        <param key="device.rerouting.probability" value="1"/>
        <param key="device.rerouting.period"      value="60"/>
        <param key="device.rerouting.pre-period"  value="60"/>
    </vehicle>
    <vehicle id="10" reroute="true" depart="20.00">
        <route edges="1Si 0Ei 3Ni 3Wo"/>
        <param key="device.rerouting.probability" value="1"/>
        <param key="device.rerouting.period"      value="60"/>
        <param key="device.rerouting.pre-period"  value="60"/>
    </vehicle>
    <vehicle id="11" reroute="true" depart="22.00">
        <route edges="1Wi 4Ni 7Ni 6Ei 6Wo"/>
        <param key="device.rerouting.probability" value="1"/>
        <param key="device.rerouting.period"      value="60"/>
        <param key="device.rerouting.pre-period"  value="60"/>
    </vehicle>
    <vehicle id="12" reroute="true" depart="24.00">
        <route edges="2Si 1Ei 0Ei 3Ni 6Ni"/>
        <param key="device.rerouting.probability" value="1"/>
        <param key="device.rerouting.period"      value="60"/>
        <param key="device.rerouting.pre-period"  value="60"/>
    </vehicle>
    <vehicle id="13" reroute="true" depart="26.00">
        <route edges="5Ni 8Ni 7Ei 6Ei 3Si 4Wi"/>
        <param key="device.rerouting.probability" value="1"/>
        <param key="device.rerouting.period"      value="60"/>
        <param key="device.rerouting.pre-period"  value="60"/>
    </vehicle>
    <vehicle id="14" reroute="true" depart="28.00">
        <route edges="6Ni 7Wi 4Si 3Ei 0Si 1Wi"/>
        <param key="device.rerouting.probability" value="1"/>
        <param key="device.rerouting.period"      value="60"/>
        <param key="device.rerouting.pre-period"  value="60"/>
    </vehicle>
    <vehicle id="15" reroute="true" depart="30.00">
        <route edges="3Ni 4Wi 1Si 0Ei 0No"/>
        <param key="device.rerouting.probability" value="1"/>
        <param key="device.rerouting.period"      value="60"/>
        <param key="device.rerouting.pre-period"  value="60"/>
    </vehicle>
    <vehicle id="16" reroute="true" depart="32.00">
        <route edges="8Ni 7Ei 4Si 1Si 2Wi 5Ni 4Ei"/>
        <param key="device.rerouting.probability" value="1"/>
        <param key="device.rerouting.period"      value="60"/>
        <param key="device.rerouting.pre-period"  value="60"/>
    </vehicle>
    <vehicle id="17" reroute="true" depart="34.00">
        <route edges="3Wi 4Wi 1Si 0Ei"/>
        <param key="device.rerouting.probability" value="1"/>
        <param key="device.rerouting.period"      value="60"/>
        <param key="device.rerouting.pre-period"  value="60"/>
    </vehicle>
    <vehicle id="18" reroute="true" depart="36.00">
        <route edges="0Ni 1Wi 2Wi 5Ni 8Ni 7Ei"/>
        <param key="device.rerouting.probability" value="1"/>
        <param key="device.rerouting.period"      value="60"/>
        <param key="device.rerouting.pre-period"  value="60"/>
    </vehicle>
    <vehicle id="19" reroute="true" depart="38.00">
        <route edges="3Ni 4Wi 5Wi 2Si"/>
        <param key="device.rerouting.probability" value="1"/>
        <param key="device.rerouting.period"      value="60"/>
        <param key="device.rerouting.pre-period"  value="60"/>
    </vehicle>
    <vehicle id="20" reroute="true" depart="40.00">
        <route edges="2Wi 5Ni 8Ni 7Ei 6Ei 6So"/>
        <param key="device.rerouting.probability" value="1"/>
        <param key="device.rerouting.period"      value="60"/>
        <param key="device.rerouting.pre-period"  value="60"/>
    </vehicle>
    <vehicle id="21" reroute="true" depart="42.00">
        <route edges="3Si 4Wi 5Wi 8Ni 7Ei"/>
        <param key="device.rerouting.probability" value="1"/>
        <param key="device.rerouting.period"      value="60"/>
        <param key="device.rerouting.pre-period"  value="60"/>
    </vehicle>
    <vehicle id="22" reroute="true" depart="44.00">
        <route edges="0Ni 3Ni 6Ni 6So"/>
        <param key="device.rerouting.probability" value="1"/>
        <param key="device.rerouting.period"      value="60"/>
        <param key="device.rerouting.pre-period"  value="60"/>
    </vehicle>
    <vehicle id="23" reroute="true" depart="46.00">
        <route edges="8Ei 7Ei 6Ei 6Wo"/>
        <param key="device.rerouting.probability" value="1"/>
        <param key="device.rerouting.period"      value="60"/>
        <param key="device.rerouting.pre-period"  value="60"/>
    </vehicle>
    <vehicle id="24" reroute="true" depart="48.00">
        <route edges="5Si 2Si"/>
        <param key="device.rerouting.probability" value="1"/>
        <param key="device.rerouting.period"      value="60"/>
        <param key="device.rerouting.pre-period"  value="60"/>
    </vehicle>
    <vehicle id="25" reroute="true" depart="50.00">
        <route edges="7Wi 4Si 3Ei 6Ni 6Wo"/>
        <param key="device.rerouting.probability" value="1"/>
        <param key="device.rerouting.period"      value="60"/>
        <param key="device.rerouting.pre-period"  value="60"/>
    </vehicle>
    <vehicle id="26" reroute="true" depart="52.00">
        <route edges="4Wi 5Wi 8Ni 7Ei"/>
        <param key="device.rerouting.probability" value="1"/>
        <param key="device.rerouting.period"      value="60"/>
        <param key="device.rerouting.pre-period"  value="60"/>
    </vehicle>
    <vehicle id="27" reroute="true" depart="54.00">
        <route edges="1Ni 4Ni 7Ni 6Ei 3Si"/>
        <param key="device.rerouting.probability" value="1"/>
        <param key="device.rerouting.period"      value="60"/>
        <param key="device.rerouting.pre-period"  value="60"/>
    </vehicle>
    <vehicle id="28" reroute="true" depart="56.00">
        <route edges="7Si 4Si 1Si 0Ei 0Wo"/>
        <param key="device.rerouting.probability" value="1"/>
        <param key="device.rerouting.period"      value="60"/>
        <param key="device.rerouting.pre-period"  value="60"/>
    </vehicle>
    <vehicle id="29" reroute="true" depart="58.00">
        <route edges="4Si 3Ei 0Si 1Wi"/>
        <param key="device.rerouting.probability" value="1"/>
        <param key="device.rerouting.period"      value="60"/>
        <param key="device.rerouting.pre-period"  value="60"/>
    </vehicle>
    <vehicle id="30" reroute="true" depart="60.00">
        <route edges="3Ni 3Wo"/>
        <param key="device.rerouting.probability" value="1"/>
        <param key="device.rerouting.period"      value="60"/>
        <param key="device.rerouting.pre-period"  value="60"/>
    </vehicle>
    <vehicle id="31" reroute="true" depart="62.00">
        <route edges="4Si 1Si 2Wi 5Ni"/>
        <param key="device.rerouting.probability" value="1"/>
        <param key="device.rerouting.period"      value="60"/>
        <param key="device.rerouting.pre-period"  value="60"/>
    </vehicle>
    <vehicle id="32" reroute="true" depart="64.00">
        <route edges="8Si 7Ei 4Si 1Si 2Wi"/>
        <param key="device.rerouting.probability" value="1"/>
        <param key="device.rerouting.period"      value="60"/>
        <param key="device.rerouting.pre-period"  value="60"/>
    </vehicle>
    <vehicle id="33" reroute="true" depart="66.00">
        <route edges="4Ei 1Si 0Ei"/>
        <param key="device.rerouting.probability" value="1"/>
        <param key="device.rerouting.period"      value="60"/>
        <param key="device.rerouting.pre-period"  value="60"/>
    </vehicle>
    <vehicle id="34" reroute="true" depart="68.00">
        <route edges="3Si 4Wi"/>
        <param key="device.rerouting.probability" value="1"/>
        <param key="device.rerouting.period"      value="60"/>
        <param key="device.rerouting.pre-period"  value="60"/>
    </vehicle>
    <vehicle id="35" reroute="true" depart="70.00">
        <route edges="4Ei 7Ni 8Wi"/>
        <param key="device.rerouting.probability" value="1"/>
        <param key="device.rerouting.period"      value="60"/>
        <param key="device.rerouting.pre-period"  value="60"/>
    </vehicle>
    <vehicle id="36" reroute="true" depart="72.00">
        <route edges="0Si 1Wi 2Wi 5Ni 8Ni"/>
        <param key="device.rerouting.probability" value="1"/>
        <param key="device.rerouting.period"      value="60"/>
        <param key="device.rerouting.pre-period"  value="60"/>
    </vehicle>
    <vehicle id="37" reroute="true" depart="74.00">
        <route edges="0Ni 3Ni 4Wi 5Wi 2Si 1Ei"/>
        <param key="device.rerouting.probability" value="1"/>
        <param key="device.rerouting.period"      value="60"/>
        <param key="device.rerouting.pre-period"  value="60"/>
    </vehicle>
    <vehicle id="38" reroute="true" depart="76.00">
        <route edges="8Ni 7Ei 4Si 1Si 1No"/>
        <param key="device.rerouting.probability" value="1"/>
        <param key="device.rerouting.period"      value="60"/>
        <param key="device.rerouting.pre-period"  value="60"/>
    </vehicle>
    <vehicle id="39" reroute="true" depart="78.00">
        <route edges="1Ni 0Ei 3Ni"/>
        <param key="device.rerouting.probability" value="1"/>
        <param key="device.rerouting.period"      value="60"/>
        <param key="device.rerouting.pre-period"  value="60"/>
    </vehicle>
    <vehicle id="40" reroute="true" depart="80.00">
        <route edges="2Ni 1Ei 0Ei 0Wo"/>
        <param key="device.rerouting.probability" value="1"/>
        <param key="device.rerouting.period"      value="60"/>
        <param key="device.rerouting.pre-period"  value="60"/>
    </vehicle>
    <vehicle id="41" reroute="true" depart="82.00">
        <route edges="3Si 4Wi 5Wi 2Si 2No"/>
        <param key="device.rerouting.probability" value="1"/>
        <param key="device.rerouting.period"      value="60"/>
        <param key="device.rerouting.pre-period"  value="60"/>
    </vehicle>
    <vehicle id="42" reroute="true" depart="84.00">
        <route edges="1Ni 4Ni 5Wi 2Si"/>
        <param key="device.rerouting.probability" value="1"/>
        <param key="device.rerouting.period"      value="60"/>
        <param key="device.rerouting.pre-period"  value="60"/>
    </vehicle>
    <vehicle id="43" reroute="true" depart="86.00">
        <route edges="2Wi 5Ni 4Ei"/>
        <param key="device.rerouting.probability" value="1"/>
        <param key="device.rerouting.period"      value="60"/>
        <param key="device.rerouting.pre-period"  value="60"/>
    </vehicle>
    <vehicle id="44" reroute="true" depart="88.00">
        <route edges="5Si 4Ei 1Si 2Wi 5Ni"/>
        <param key="device.rerouting.probability" value="1"/>
        <param key="device.rerouting.period"      value="60"/>
        <param key="device.rerouting.pre-period"  value="60"/>
    </vehicle>
    <vehicle id="45" reroute="true" depart="90.00">
        <route edges="4Si 3Ei 0Si 1Wi"/>
        <param key="device.rerouting.probability" value="1"/>
        <param key="device.rerouting.period"      value="60"/>
        <param key="device.rerouting.pre-period"  value="60"/>
    </vehicle>
    <vehicle id="46" reroute="true" depart="92.00">
        <route edges="2Ni 5Ni 8Ni 8Eo"/>
        <param key="device.rerouting.probability" value="1"/>
        <param key="device.rerouting.period"      value="60"/>
        <param key="device.rerouting.pre-period"  value="60"/>
    </vehicle>
    <vehicle id="47" reroute="true" depart="94.00">
        <route edges="7Ni 6Ei 3Si 0Si 0No"/>
        <param key="device.rerouting.probability" value="1"/>
        <param key="device.rerouting.period"      value="60"/>
        <param key="device.rerouting.pre-period"  value="60"/>
    </vehicle>
    <vehicle id="48" reroute="true" depart="96.00">
        <route edges="2Ni 1Ei 0Ei 3Ni 6Ni 6So"/>
        <param key="device.rerouting.probability" value="1"/>
        <param key="device.rerouting.period"      value="60"/>
        <param key="device.rerouting.pre-period"  value="60"/>
    </vehicle>
    <vehicle id="49" reroute="true" depart="98.00">
        <route edges="7Si 8Wi 5Si 4Ei"/>
        <param key="device.rerouting.probability" value="1"/>
        <param key="device.rerouting.period"      value="60"/>
        <param key="device.rerouting.pre-period"  value="60"/>
    </vehicle>
    <vehicle id="50" reroute="true" depart="100.00">
        <route edges="4Si 5Wi 8Ni 8Eo"/>
        <param key="device.rerouting.probability" value="1"/>
        <param key="device.rerouting.period"      value="60"/>
        <param key="device.rerouting.pre-period"  value="60"/>
    </vehicle>
    <vehicle id="51" reroute="true" depart="102.00">
        <route edges="3Ei 6Ni 7Wi 4Si"/>
        <param key="device.rerouting.probability" value="1"/>
        <param key="device.rerouting.period"      value="60"/>
        <param key="device.rerouting.pre-period"  value="60"/>
    </vehicle>
    <vehicle id="52" reroute="true" depart="104.00">
        <route edges="7Si 8Wi 5Si"/>
        <param key="device.rerouting.probability" value="1"/>
        <param key="device.rerouting.period"      value="60"/>
        <param key="device.rerouting.pre-period"  value="60"/>
    </vehicle>
    <vehicle id="53" reroute="true" depart="106.00">
        <route edges="7Ni 6Ei 6Wo"/>
        <param key="device.rerouting.probability" value="1"/>
        <param key="device.rerouting.period"      value="60"/>
        <param key="device.rerouting.pre-period"  value="60"/>
    </vehicle>
    <vehicle id="54" reroute="true" depart="108.00">
        <route edges="4Si 5Wi 8Ni 7Ei 6Ei"/>
        <param key="device.rerouting.probability" value="1"/>
        <param key="device.rerouting.period"      value="60"/>
        <param key="device.rerouting.pre-period"  value="60"/>
    </vehicle>
    <vehicle id="55" reroute="true" depart="110.00">
        <route edges="8Ni 7Ei 4Si 5Wi 2Si 1Ei"/>
        <param key="device.rerouting.probability" value="1"/>
        <param key="device.rerouting.period"      value="60"/>
        <param key="device.rerouting.pre-period"  value="60"/>
    </vehicle>
    <vehicle id="56" reroute="true" depart="112.00">
        <route edges="6Si 3Si 4Wi"/>
        <param key="device.rerouting.probability" value="1"/>
        <param key="device.rerouting.period"      value="60"/>
        <param key="device.rerouting.pre-period"  value="60"/>
    </vehicle>
    <vehicle id="57" reroute="true" depart="114.00">
        <route edges="0Ei 3Ni 4Wi 5Wi 5Eo"/>
        <param key="device.rerouting.probability" value="1"/>
        <param key="device.rerouting.period"      value="60"/>
        <param key="device.rerouting.pre-period"  value="60"/>
    </vehicle>
    <vehicle id="58" reroute="true" depart="116.00">
        <route edges="7Ni 8Wi 8Eo"/>
        <param key="device.rerouting.probability" value="1"/>
        <param key="device.rerouting.period"      value="60"/>
        <param key="device.rerouting.pre-period"  value="60"/>
    </vehicle>
    <vehicle id="59" reroute="true" depart="118.00">
        <route edges="6Si 3Si 0Si 1Wi 1No"/>
        <param key="device.rerouting.probability" value="1"/>
        <param key="device.rerouting.period"      value="60"/>
        <param key="device.rerouting.pre-period"  value="60"/>
    </vehicle>
    <vehicle id="60" reroute="true" depart="120.00">
        <route edges="0Ei 3Ni 6Ni 7Wi 7So"/>
        <param key="device.rerouting.probability" value="1"/>
        <param key="device.rerouting.period"      value="60"/>
        <param key="device.rerouting.pre-period"  value="60"/>
    </vehicle>
    <vehicle id="61" reroute="true" depart="122.00">
        <route edges="3Wi 4Wi 5Wi 8Ni 7Ei"/>
        <param key="device.rerouting.probability" value="1"/>
        <param key="device.rerouting.period"      value="60"/>
        <param key="device.rerouting.pre-period"  value="60"/>
    </vehicle>
    <vehicle id="62" reroute="true" depart="124.00">
        <route edges="5Wi 8Ni"/>
        <param key="device.rerouting.probability" value="1"/>
        <param key="device.rerouting.period"      value="60"/>
        <param key="device.rerouting.pre-period"  value="60"/>
    </vehicle>
    <vehicle id="63" reroute="true" depart="126.00">
        <route edges="2Si 1Ei 4Ni 7Ni 8Wi 8Eo"/>
        <param key="device.rerouting.probability" value="1"/>
        <param key="device.rerouting.period"      value="60"/>
        <param key="device.rerouting.pre-period"  value="60"/>
    </vehicle>
    <vehicle id="64" reroute="true" depart="128.00">
        <route edges="3Ei 6Ni 7Wi 7So"/>
        <param key="device.rerouting.probability" value="1"/>
        <param key="device.rerouting.period"      value="60"/>
        <param key="device.rerouting.pre-period"  value="60"/>
    </vehicle>
    <vehicle id="65" reroute="true" depart="130.00">
        <route edges="0Wi 3Ni 6Ni"/>
        <param key="device.rerouting.probability" value="1"/>
        <param key="device.rerouting.period"      value="60"/>
        <param key="device.rerouting.pre-period"  value="60"/>
    </vehicle>
    <vehicle id="66" reroute="true" depart="132.00">
        <route edges="7Si 8Wi 5Si 4Ei"/>
        <param key="device.rerouting.probability" value="1"/>
        <param key="device.rerouting.period"      value="60"/>
        <param key="device.rerouting.pre-period"  value="60"/>
    </vehicle>
    <vehicle id="67" reroute="true" depart="134.00">
        <route edges="2Ei 1Ei 0Ei 3Ni 6Ni 7Wi"/>
        <param key="device.rerouting.probability" value="1"/>
        <param key="device.rerouting.period"      value="60"/>
        <param key="device.rerouting.pre-period"  value="60"/>
    </vehicle>
    <vehicle id="68" reroute="true" depart="136.00">
        <route edges="0Wi 1Wi 2Wi 2No"/>
        <param key="device.rerouting.probability" value="1"/>
        <param key="device.rerouting.period"      value="60"/>
        <param key="device.rerouting.pre-period"  value="60"/>
    </vehicle>
    <vehicle id="69" reroute="true" depart="138.00">
        <route edges="5Wi 2Si"/>
        <param key="device.rerouting.probability" value="1"/>
        <param key="device.rerouting.period"      value="60"/>
        <param key="device.rerouting.pre-period"  value="60"/>
    </vehicle>
    <vehicle id="70" reroute="true" depart="140.00">
        <route edges="5Si 2Si 1Ei 0Ei 0Wo"/>
        <param key="device.rerouting.probability" value="1"/>
        <param key="device.rerouting.period"      value="60"/>
        <param key="device.rerouting.pre-period"  value="60"/>
    </vehicle>
    <vehicle id="71" reroute="true" depart="142.00">
        <route edges="4Wi 1Si"/>
        <param key="device.rerouting.probability" value="1"/>
        <param key="device.rerouting.period"      value="60"/>
        <param key="device.rerouting.pre-period"  value="60"/>
    </vehicle>
    <vehicle id="72" reroute="true" depart="144.00">
        <route edges="7Ei 6Ei 3Si 4Wi 7Ni 8Wi"/>
        <param key="device.rerouting.probability" value="1"/>
        <param key="device.rerouting.period"      value="60"/>
        <param key="device.rerouting.pre-period"  value="60"/>
    </vehicle>
    <vehicle id="73" reroute="true" depart="146.00">
        <route edges="2Si 1Ei 4Ni 7Ni 8Wi 8Eo"/>
        <param key="device.rerouting.probability" value="1"/>
        <param key="device.rerouting.period"      value="60"/>
        <param key="device.rerouting.pre-period"  value="60"/>
    </vehicle>
    <vehicle id="74" reroute="true" depart="148.00">
        <route edges="4Si 1Si 0Ei 0Wo"/>
        <param key="device.rerouting.probability" value="1"/>
        <param key="device.rerouting.period"      value="60"/>
        <param key="device.rerouting.pre-period"  value="60"/>
    </vehicle>
    <vehicle id="75" reroute="true" depart="150.00">
        <route edges="6Si 3Si 0Si 0No"/>
        <param key="device.rerouting.probability" value="1"/>
        <param key="device.rerouting.period"      value="60"/>
        <param key="device.rerouting.pre-period"  value="60"/>
    </vehicle>
    <vehicle id="76" reroute="true" depart="152.00">
        <route edges="2Ei 1Ei 4Ni 7Ni 8Wi 5Si"/>
        <param key="device.rerouting.probability" value="1"/>
        <param key="device.rerouting.period"      value="60"/>
        <param key="device.rerouting.pre-period"  value="60"/>
    </vehicle>
    <vehicle id="77" reroute="true" depart="154.00">
        <route edges="2Wi 5Ni 4Ei 1Si 1No"/>
        <param key="device.rerouting.probability" value="1"/>
        <param key="device.rerouting.period"      value="60"/>
        <param key="device.rerouting.pre-period"  value="60"/>
    </vehicle>
    <vehicle id="78" reroute="true" depart="156.00">
        <route edges="7Ni 6Ei 3Si 4Wi 1Si 0Ei"/>
        <param key="device.rerouting.probability" value="1"/>
        <param key="device.rerouting.period"      value="60"/>
        <param key="device.rerouting.pre-period"  value="60"/>
    </vehicle>
    <vehicle id="79" reroute="true" depart="158.00">
        <route edges="6Ni 7Wi 4Si 1Si 0Ei 3Ni 4Wi"/>
        <param key="device.rerouting.probability" value="1"/>
        <param key="device.rerouting.period"      value="60"/>
        <param key="device.rerouting.pre-period"  value="60"/>
    </vehicle>
    <vehicle id="80" reroute="true" depart="160.00">
        <route edges="3Si 0Si 1Wi 4Ni 3Ei"/>
        <param key="device.rerouting.probability" value="1"/>
        <param key="device.rerouting.period"      value="60"/>
        <param key="device.rerouting.pre-period"  value="60"/>
    </vehicle>
    <vehicle id="81" reroute="true" depart="162.00">
        <route edges="7Wi 4Si"/>
        <param key="device.rerouting.probability" value="1"/>
        <param key="device.rerouting.period"      value="60"/>
        <param key="device.rerouting.pre-period"  value="60"/>
    </vehicle>
    <vehicle id="82" reroute="true" depart="164.00">
        <route edges="0Si 1Wi 4Ni 3Ei"/>
        <param key="device.rerouting.probability" value="1"/>
        <param key="device.rerouting.period"      value="60"/>
        <param key="device.rerouting.pre-period"  value="60"/>
    </vehicle>
    <vehicle id="83" reroute="true" depart="166.00">
        <route edges="0Ei 3Ni 4Wi 1Si 2Wi 5Ni 4Ei"/>
        <param key="device.rerouting.probability" value="1"/>
        <param key="device.rerouting.period"      value="60"/>
        <param key="device.rerouting.pre-period"  value="60"/>
    </vehicle>
    <vehicle id="84" reroute="true" depart="168.00">
        <route edges="8Ni 7Ei 4Si 1Si 0Ei"/>
        <param key="device.rerouting.probability" value="1"/>
        <param key="device.rerouting.period"      value="60"/>
        <param key="device.rerouting.pre-period"  value="60"/>
    </vehicle>
    <vehicle id="85" reroute="true" depart="170.00">
        <route edges="7Ei 4Si 1Si 0Ei 0Wo"/>
        <param key="device.rerouting.probability" value="1"/>
        <param key="device.rerouting.period"      value="60"/>
        <param key="device.rerouting.pre-period"  value="60"/>
    </vehicle>
    <vehicle id="86" reroute="true" depart="172.00">
        <route edges="4Ni 7Ni 6Ei"/>
        <param key="device.rerouting.probability" value="1"/>
        <param key="device.rerouting.period"      value="60"/>
        <param key="device.rerouting.pre-period"  value="60"/>
    </vehicle>
    <vehicle id="87" reroute="true" depart="174.00">
        <route edges="8Ei 7Ei 4Si"/>
        <param key="device.rerouting.probability" value="1"/>
        <param key="device.rerouting.period"      value="60"/>
        <param key="device.rerouting.pre-period"  value="60"/>
    </vehicle>
    <vehicle id="88" reroute="true" depart="176.00">
        <route edges="7Wi 4Si 3Ei 0Si"/>
        <param key="device.rerouting.probability" value="1"/>
        <param key="device.rerouting.period"      value="60"/>
        <param key="device.rerouting.pre-period"  value="60"/>
    </vehicle>
    <vehicle id="89" reroute="true" depart="178.00">
        <route edges="7Si 4Si 3Ei"/>
        <param key="device.rerouting.probability" value="1"/>
        <param key="device.rerouting.period"      value="60"/>
        <param key="device.rerouting.pre-period"  value="60"/>
    </vehicle>
    <vehicle id="90" reroute="true" depart="180.00">
        <route edges="6Si 3Si 0Si 1Wi"/>
        <param key="device.rerouting.probability" value="1"/>
        <param key="device.rerouting.period"      value="60"/>
        <param key="device.rerouting.pre-period"  value="60"/>
    </vehicle>
    <vehicle id="91" reroute="true" depart="182.00">
        <route edges="1Ei 4Ni 5Wi 5Eo"/>
        <param key="device.rerouting.probability" value="1"/>
        <param key="device.rerouting.period"      value="60"/>
        <param key="device.rerouting.pre-period"  value="60"/>
    </vehicle>
    <vehicle id="92" reroute="true" depart="184.00">
        <route edges="1Ei 4Ni 5Wi 8Ni 7Ei"/>
        <param key="device.rerouting.probability" value="1"/>
        <param key="device.rerouting.period"      value="60"/>
        <param key="device.rerouting.pre-period"  value="60"/>
    </vehicle>
    <vehicle id="93" reroute="true" depart="186.00">
        <route edges="3Wi 4Wi 1Si"/>
        <param key="device.rerouting.probability" value="1"/>
        <param key="device.rerouting.period"      value="60"/>
        <param key="device.rerouting.pre-period"  value="60"/>
    </vehicle>
    <vehicle id="94" reroute="true" depart="188.00">
        <route edges="8Ni 7Ei 6Ei 6So"/>
        <param key="device.rerouting.probability" value="1"/>
        <param key="device.rerouting.period"      value="60"/>
        <param key="device.rerouting.pre-period"  value="60"/>
    </vehicle>
    <vehicle id="95" reroute="true" depart="190.00">
        <route edges="6Ei 3Si 0Si 0Wo"/>
        <param key="device.rerouting.probability" value="1"/>
        <param key="device.rerouting.period"      value="60"/>
        <param key="device.rerouting.pre-period"  value="60"/>
    </vehicle>
    <vehicle id="96" reroute="true" depart="192.00">
        <route edges="6Wi 3Si 4Wi 5Wi 8Ni"/>
        <param key="device.rerouting.probability" value="1"/>
        <param key="device.rerouting.period"      value="60"/>
        <param key="device.rerouting.pre-period"  value="60"/>
    </vehicle>
    <vehicle id="97" reroute="true" depart="194.00">
        <route edges="5Wi 8Ni 7Ei 4Si 1Si 2Wi 5Ni"/>
        <param key="device.rerouting.probability" value="1"/>
        <param key="device.rerouting.period"      value="60"/>
        <param key="device.rerouting.pre-period"  value="60"/>
    </vehicle>
    <vehicle id="98" reroute="true" depart="196.00">
        <route edges="5Wi 8Ni 7Ei 6Ei 6Wo"/>