<routes>
                <route id="route_ns" edges="n_t t_s"/>
                <route id="route_nw" edges="n_t t_w"/>
                <route id="route_ne" edges="n_t t_e"/>
                <route id="route_we" edges="w_t t_e"/>
                <route id="route_wn" edges="w_t t_n"/>
                <route id="route_ws" edges="w_t t_s"/>
                <route id="route_ew" edges="e_t t_w"/>
                <route id="route_en" edges="e_t t_n"/>
                <route id="route_es" edges="e_t t_s"/>
                <route id="route_sn" edges="s_t t_n"/>
                <route id="route_se" edges="s_t t_e"/>
                <route id="route_sw" edges="s_t t_w"/>

    <flow id="flow_ns_0" route="route_ns" begin="0" end="1000" probability="0.05" departSpeed="max" departPos="base" departLane="best"/>
    <flow id="flow_nw_0" route="route_nw" begin="0" end="1000" probability="0.05" departSpeed="max" departPos="base" departLane="best"/>
    <flow id="flow_ne_0" route="route_ne" begin="0" end="1000" probability="0.1" departSpeed="max" departPos="base" departLane="best"/>
    <flow id="flow_sw_0" route="route_sw" begin="0" end="1000" probability="0.1" departSpeed="max" departPos="base" departLane="best"/>
    <flow id="flow_sn_0" route="route_sn" begin="0" end="1000" probability="0.05" departSpeed="max" departPos="base" departLane="best"/>
    <flow id="flow_se_0" route="route_se" begin="0" end="1000" probability="0.05" departSpeed="max" departPos="base" departLane="best"/>
    <flow id="flow_en_0" route="route_en" begin="0" end="1000" probability="0.15" departSpeed="max" departPos="base" departLane="best"/>
    <flow id="flow_ew_0" route="route_ew" begin="0" end="1000" probability="0.15" departSpeed="max" departPos="base" departLane="best"/>
    <flow id="flow_es_0" route="route_es" begin="0" end="1000" probability="0.3" departSpeed="max" departPos="base" departLane="best"/>
    <flow id="flow_wn_0" route="route_wn" begin="0" end="1000" probability="0.3" departSpeed="max" departPos="base" departLane="best"/>
    <flow id="flow_we_0" route="route_we" begin="0" end="1000" probability="0.15" departSpeed="max" departPos="base" departLane="best"/>
    <flow id="flow_ws_0" route="route_ws" begin="0" end="1000" probability="0.15" departSpeed="max" departPos="base" departLane="best"/>
    
    <flow id="flow_ns_1" route="route_ns" begin="1000" end="2000" probability="0.1" departSpeed="max" departPos="base" departLane="best"/>
    <flow id="flow_nw_1" route="route_nw" begin="1000" end="2000" probability="0.1" departSpeed="max" departPos="base" departLane="best"/>
    <flow id="flow_ne_1" route="route_ne" begin="1000" end="2000" probability="0.2" departSpeed="max" departPos="base" departLane="best"/>
    <flow id="flow_sw_1" route="route_sw" begin="1000" end="2000" probability="0.2" departSpeed="max" departPos="base" departLane="best"/>
    <flow id="flow_sn_1" route="route_sn" begin="1000" end="2000" probability="0.1" departSpeed="max" departPos="base" departLane="best"/>
    <flow id="flow_se_1" route="route_se" begin="1000" end="2000" probability="0.1" departSpeed="max" departPos="base" departLane="best"/>
    <flow id="flow_en_1" route="route_en" begin="1000" end="2000" probability="0.3" departSpeed="max" departPos="base" departLane="best"/>
    <flow id="flow_ew_1" route="route_ew" begin="1000" end="2000" probability="0.3" departSpeed="max" departPos="base" departLane="best"/>
    <flow id="flow_es_1" route="route_es" begin="1000" end="2000" probability="0.6" departSpeed="max" departPos="base" departLane="best"/>
    <flow id="flow_wn_1" route="route_wn" begin="1000" end="2000" probability="0.6" departSpeed="max" departPos="base" departLane="best"/>
    <flow id="flow_we_1" route="route_we" begin="1000" end="2000" probability="0.3" departSpeed="max" departPos="base" departLane="best"/>
    <flow id="flow_ws_1" route="route_ws" begin="1000" end="2000" probability="0.3" departSpeed="max" departPos="base" departLane="best"/>

    <flow id="flow_ns_2" route="route_ns" begin="2000" end="3000" probability="0.05" departSpeed="max" departPos="base" departLane="best"/>
    <flow id="flow_nw_2" route="route_nw" begin="2000" end="3000" probability="0.05" departSpeed="max" departPos="base" departLane="best"/>
    <flow id="flow_ne_2" route="route_ne" begin="2000" end="3000" probability="0.1" departSpeed="max" departPos="base" departLane="best"/>
    <flow id="flow_sw_2" route="route_sw" begin="2000" end="3000" probability="0.1" departSpeed="max" departPos="base" departLane="best"/>
    <flow id="flow_sn_2" route="route_sn" begin="2000" end="3000" probability="0.05" departSpeed="max" departPos="base" departLane="best"/>
    <flow id="flow_se_2" route="route_se" begin="2000" end="3000" probability="0.05" departSpeed="max" departPos="base" departLane="best"/>
    <flow id="flow_en_2" route="route_en" begin="2000" end="3000" probability="0.15" departSpeed="max" departPos="base" departLane="best"/>
    <flow id="flow_ew_2" route="route_ew" begin="2000" end="3000" probability="0.15" departSpeed="max" departPos="base" departLane="best"/>
    <flow id="flow_es_2" route="route_es" begin="2000" end="3000" probability="0.3" departSpeed="max" departPos="base" departLane="best"/>
    <flow id="flow_wn_2" route="route_wn" begin="2000" end="3000" probability="0.3" departSpeed="max" departPos="base" departLane="best"/>
    <flow id="flow_we_2" route="route_we" begin="2000" end="3000" probability="0.15" departSpeed="max" departPos="base" departLane="best"/>
    <flow id="flow_ws_2" route="route_ws" begin="2000" end="3000" probability="0.15" departSpeed="max" departPos="base" departLane="best"/>

    <flow id="flow_ns_3" route="route_ns" begin="3000" end="4000" probability="0.1" departSpeed="max" departPos="base" departLane="best"/>
    <flow id="flow_nw_3" route="route_nw" begin="3000" end="4000" probability="0.1" departSpeed="max" departPos="base" departLane="best"/>
    <flow id="flow_ne_3" route="route_ne" begin="3000" end="4000" probability="0.2" departSpeed="max" departPos="base" departLane="best"/>
    <flow id="flow_sw_3" route="route_sw" begin="3000" end="4000" probability="0.2" departSpeed="max" departPos="base" departLane="best"/>
    <flow id="flow_sn_3" route="route_sn" begin="3000" end="4000" probability="0.1" departSpeed="max" departPos="base" departLane="best"/>
    <flow id="flow_se_3" route="route_se" begin="3000" end="4000" probability="0.1" departSpeed="max" departPos="base" departLane="best"/>
    <flow id="flow_en_3" route="route_en" begin="3000" end="4000" probability="0.2" departSpeed="max" departPos="base" departLane="best"/>
    <flow id="flow_ew_3" route="route_ew" begin="3000" end="4000" probability="0.2" departSpeed="max" departPos="base" departLane="best"/>
    <flow id="flow_es_3" route="route_es" begin="3000" end="4000" probability="0.6" departSpeed="max" departPos="base" departLane="best"/>
    <flow id="flow_wn_3" route="route_wn" begin="3000" end="4000" probability="0.6" departSpeed="max" departPos="base" departLane="best"/>
    <flow id="flow_we_3" route="route_we" begin="3000" end="4000" probability="0.3" departSpeed="max" departPos="base" departLane="best"/>
    <flow id="flow_ws_3" route="route_ws" begin="3000" end="4000" probability="0.3" departSpeed="max" departPos="base" departLane="best"/>

    <flow id="flow_ns_4" route="route_ns" begin="4000" end="5000" probability="0.05" departSpeed="max" departPos="base" departLane="best"/>
    <flow id="flow_nw_4" route="route_nw" begin="4000" end="5000" probability="0.05" departSpeed="max" departPos="base" departLane="best"/>
    <flow id="flow_ne_4" route="route_ne" begin="4000" end="5000" probability="0.1" departSpeed="max" departPos="base" departLane="best"/>
    <flow id="flow_sw_4" route="route_sw" begin="4000" end="5000" probability="0.1" departSpeed="max" departPos="base" departLane="best"/>
    <flow id="flow_sn_4" route="route_sn" begin="4000" end="5000" probability="0.05" departSpeed="max" departPos="base" departLane="best"/>
    <flow id="flow_se_4" route="route_se" begin="4000" end="5000" probability="0.05" departSpeed="max" departPos="base" departLane="best"/>
    <flow id="flow_en_4" route="route_en" begin="4000" end="5000" probability="0.15" departSpeed="max" departPos="base" departLane="best"/>
    <flow id="flow_ew_4" route="route_ew" begin="4000" end="5000" probability="0.15" departSpeed="max" departPos="base" departLane="best"/>
    <flow id="flow_es_4" route="route_es" begin="4000" end="5000" probability="0.3" departSpeed="max" departPos="base" departLane="best"/>
    <flow id="flow_wn_4" route="route_wn" begin="4000" end="5000" probability="0.3" departSpeed="max" departPos="base" departLane="best"/>
    <flow id="flow_we_4" route="route_we" begin="4000" end="5000" probability="0.15" departSpeed="max" departPos="base" departLane="best"/>
    <flow id="flow_ws_4" route="route_ws" begin="4000" end="5000" probability="0.15" departSpeed="max" departPos="base" departLane="best"/>
</routes>
