<routes>
    <route id="route_ns" edges="n_t t_s"/>
    <route id="route_we" edges="w_t t_e"/>

    <flow id="flow_nsl1" route="route_ns" begin="0" end="1000" probability="0.2" departSpeed="max" departPos="base" departLane="best"/>
    <flow id="flow_wel1" route="route_we" begin="0" end="1000" probability="0.3" departSpeed="max" departPos="base" departLane="best"/>

    <flow id="flow_nsp1" route="route_ns" begin="1000" end="2000" probability="0.4" departSpeed="max" departPos="base" departLane="best"/>
    <flow id="flow_wep1" route="route_we" begin="1000" end="2000" probability="0.6" departSpeed="max" departPos="base" departLane="best"/>
    
    <flow id="flow_nsl2" route="route_ns" begin="2000" end="3000" probability="0.2" departSpeed="max" departPos="base" departLane="best"/>
    <flow id="flow_wel2" route="route_we" begin="2000" end="3000" probability="0.3" departSpeed="max" departPos="base" departLane="best"/>
    

    <flow id="flow_nsp2" route="route_ns" begin="3000" end="4000" probability="0.4" departSpeed="max" departPos="base" departLane="best"/>
    <flow id="flow_wep2" route="route_we" begin="3000" end="4000" probability="0.6" departSpeed="max" departPos="base" departLane="best"/>
    
    <flow id="flow_nsl3" route="route_ns" begin="4000" end="5000" probability="0.2" departSpeed="max" departPos="base" departLane="best"/>
    <flow id="flow_wel3" route="route_we" begin="4000" end="5000" probability="0.3" departSpeed="max" departPos="base" departLane="best"/>

</routes>

